geometry optimzed in LAMMPS
_audit_creation_date              2020-12-01 
_audit_creation_method            'lammps2cif' 
_symmetry_space_group_name_H-M    'P1' 
_symmetry_Int_Tables_number       1 
_symmetry_cell_setting            triclinic 
loop_ 
_symmetry_equiv_pos_as_xyz 
  x,y,z 
_cell_length_a                    41.23516165 
_cell_length_b                    41.34540212723794 
_cell_length_c                    30.795505066647166 
_cell_angle_alpha                 110.67128965992057 
_cell_angle_beta                  71.75469591636889 
_cell_angle_gamma                 128.48468133311832 
loop_ 
_atom_site_label 
_atom_site_type_symbol 
_atom_site_fract_x 
_atom_site_fract_y 
_atom_site_fract_z 
_atom_site_charge 
C1          C  0.35404873  0.14680237  0.99065526     0.03400
C2          C  0.31024407  0.12214269  0.99602353    -0.12800
C3          C  0.28933791  0.13864894  0.99490682     0.00900
C4          C  0.31300351  0.18103251  0.99134195    -0.11300
C5          C  0.35674922  0.20597688  0.98652597     0.03400
C6          C  0.37717350  0.18885691  0.98659841    -0.10700
H7          H  0.29278909  0.08936678  0.99787777     0.09000
H8          H  0.29765834  0.19383725  0.98841876     0.06500
H9          H  0.41096709  0.20704138  0.97966452     0.06400
C10         C  0.34781371  0.14279181  0.48910529     0.03400
C11         C  0.30442494  0.12219575  0.50062507    -0.12800
C12         C  0.28472057  0.13844670  0.49559881     0.00900
C13         C  0.30961743  0.17820182  0.48370150    -0.11300
C14         C  0.35332720  0.20042216  0.47458608     0.03400
C15         C  0.37214145  0.18222045  0.47668089    -0.10700
H16         H  0.28574247  0.09206938  0.51078181     0.09000
H17         H  0.29493573  0.19104358  0.47914048     0.06500
H18         H  0.40531808  0.19744414  0.46552058     0.06400
C19         C  0.14898074  0.33524387  0.78282401     0.03400
C20         C  0.19273740  0.36109845  0.77998153    -0.12800
C21         C  0.21417860  0.34469293  0.77954524     0.00900
C22         C  0.19120344  0.30208578  0.78174454    -0.11300
C23         C  0.14775222  0.27570625  0.78284095     0.03400
C24         C  0.12692864  0.29225490  0.78224268    -0.10700
H25         H  0.20975375  0.39442488  0.78086741     0.09000
H26         H  0.20680210  0.29013542  0.78611720     0.06500
H27         H  0.09315872  0.27223646  0.78434485     0.06400
C28         C  0.14981147  0.33628432  0.27662463     0.03400
C29         C  0.19370114  0.35943092  0.26847728    -0.12800
C30         C  0.21417047  0.34231686  0.26950852     0.00900
C31         C  0.18965391  0.30129852  0.27791200    -0.11300
C32         C  0.14597385  0.27734499  0.28426757     0.03400
C33         C  0.12624453  0.29457786  0.28248195    -0.10700
H34         H  0.21182443  0.39175205  0.26473492     0.09000
H35         H  0.20430492  0.28866482  0.28292036     0.06500
H36         H  0.09250928  0.27685914  0.28979246     0.06400
O37         O  0.12422843  0.07519028  0.93445604    -0.75000
O38         O  0.09337564  0.50844241  0.94838260    -0.53900
C39         C  0.12516581  0.04979670  0.94813812     0.78700
O40         O  0.44317899  0.05535520  0.96872602    -0.59600
O41         O  0.44685825  0.05278529  0.89247846    -0.52700
C42         C  0.43652075  0.06290499  0.93638152     0.70700
O43         O  0.49117690  0.01357225  0.03585085    -0.74200
O44         O  0.01740888  0.47692735  0.00801220    -0.54800
C45         C  0.00479540  0.49718831  0.04199399     0.76700
O46         O  0.08833603  0.11664066  0.85109008    -0.59300
O47         O  0.02524399  0.08913054  0.83179477    -0.52500
C48         C  0.06424936  0.11813108  0.83478226     0.73300
Zr49       Zr  0.08113602  0.07037701  0.89038583     2.54700
O50         O  0.10713332  0.13840217  0.94496552    -0.79900
O51         O  0.14906451  0.09700649  0.84277416    -0.93300
Zr52       Zr  0.47499180  0.02275289  0.97305289     2.64700
O53         O  0.00339131  0.08982745  0.03062328    -0.98300
O54         O  0.41225165  0.49824030  0.02939381    -0.80300
O55         O  0.03944568  0.03365079  0.95195790    -0.83700
O56         O  0.01584900  0.06111527  0.91355912    -2.18400
O57         O  0.02111482  0.47516857  0.73290396    -0.67100
O58         O  0.48924867  0.00864228  0.76207073    -0.51600
C59         C  0.50049580  0.48775769  0.72680376     0.71700
O60         O  0.41931072  0.36430637  0.91158840    -0.60000
O61         O  0.47894752  0.39536175  0.94154381    -0.52000
C62         C  0.44172919  0.36393918  0.93238003     0.73500
O63         O  0.37771298  0.41065517  0.84257277    -0.71400
O64         O  0.40811316  0.47415291  0.82534836    -0.50100
C65         C  0.37777863  0.43546972  0.82643847     0.74900
O66         O  0.06045191  0.42658971  0.80069175    -0.66700
O67         O  0.05624552  0.42786997  0.87685751    -0.53900
C68         C  0.06635500  0.41809037  0.83266725     0.73300
Zr69       Zr  0.03133805  0.46142364  0.79663283     2.77500
O70         O  0.49771847  0.39193540  0.73796352    -0.97500
O71         O  0.09814219  0.49152526  0.74685658    -0.78300
Zr72       Zr  0.42298048  0.41394183  0.88165170     2.70100
O73         O  0.38767960  0.34563415  0.82798000    -0.79500
O74         O  0.35964726  0.39128635  0.93743438    -0.98600
Zr75       Zr  0.02452947  0.46458332  0.92400880     2.21500
Zr76       Zr  0.48007384  0.01783483  0.84598000     2.11100
O77         O  0.46360267  0.44842110  0.81815286    -2.47300
O78         O  0.48768289  0.42185464  0.85687743    -0.79300
O79         O  0.04583941  0.03030134  0.82315992    -0.71500
O80         O  0.45982820  0.45530692  0.94768946    -2.32500
O81         O  0.06985375  0.00326876  0.86207732    -2.28700
O82         O  0.43565356  0.48171553  0.90835437    -0.73300
H83         H  0.02013299  0.08826630  0.92279656     0.78700
H84         H  0.44453939  0.44072316  0.97328816     0.79800
H85         H  0.44816707  0.43286281  0.79159579     0.82000
H86         H  0.09622276  0.00664630  0.85489770     0.79600
H87         H  0.38890372  0.48107909  0.01044579     0.42700
H88         H  0.35028930  0.40814115  0.93693477     0.41600
H89         H  0.40936738  0.34794048  0.80110266     0.41300
H90         H  0.47068458  0.38513783  0.73526319     0.39300
H91         H  0.12025506  0.00456639  0.76604928     0.42400
H92         H  0.15738750  0.07935742  0.84357687     0.37200
H93         H  0.09427042  0.13119261  0.97617655     0.43300
H94         H  0.01626916  0.11149805  0.01231029     0.39700
H95         H  0.01689388  0.39971509  0.71110720     0.44600
H96         H  0.16828992  0.12517239  0.86149894     0.43300
H97         H  0.48383681  0.08991875  0.05026674     0.43500
H98         H  0.33875213  0.36210885  0.92204664     0.43800
O99         O  0.11802181  0.07433439  0.44239277    -0.75000
O100        O  0.08926256  0.50865504  0.45161593    -0.53900
C101        C  0.11851288  0.04905800  0.45695932     0.77700
O102        O  0.43381294  0.04879210  0.47285465    -0.59600
O103        O  0.43712223  0.04841170  0.39715703    -0.52700
C104        C  0.42674152  0.05692094  0.44159079     0.70700
O105        O  0.47827464  0.00233385  0.53637637    -0.74200
O106        O  0.01212314  0.47036721  0.50637448    -0.54800
C107        C  0.99682115  0.48773392  0.54094475     0.76700
O108        O  0.08151583  0.12054059  0.36616556    -0.59300
O109        O  0.02263195  0.09097893  0.33570159    -0.52500
C110        C  0.05979330  0.12198833  0.34557613     0.73300
Zr111      Zr  0.07581757  0.07098194  0.39839398     2.54700
O112        O  0.10017526  0.13590062  0.45831596    -0.79900
O113        O  0.14421293  0.10103577  0.35182530    -0.93300
Zr114      Zr  0.46374176  0.01368732  0.47404306     2.64700
O115        O  0.98831716  0.07771634  0.53790225    -0.98300
O116        O  0.39241247  0.47189176  0.51270395    -0.80300
O117        O  0.03236838  0.02962421  0.45564654    -0.83700
O118        O  0.00905785  0.05826441  0.41811843    -2.18400
O119        O  0.02483166  0.48400971  0.23501574    -0.67100
O120        O  0.48972400  0.01370566  0.26461608    -0.51600
C121        C  0.50903018  0.50119292  0.22925039     0.71700
O122        O  0.42095885  0.35950994  0.39485358    -0.60000
O123        O  0.47779153  0.38961273  0.42956955    -0.52000
C124        C  0.44197408  0.35785222  0.41625427     0.73500
O125        O  0.37964194  0.40822567  0.32951352    -0.71400
O126        O  0.40802320  0.47323459  0.31817799    -0.50100
C127        C  0.37902916  0.43346185  0.31497376     0.74900
O128        O  0.06433841  0.43262059  0.29964689    -0.66700
O129        O  0.05853563  0.43144245  0.37525626    -0.53900
C130        C  0.06964950  0.42297460  0.33115876     0.73300
Zr131      Zr  0.03447531  0.46790541  0.29733073     2.77500
O132        O  0.51163136  0.40632656  0.23201868    -0.97500
O133        O  0.10489910  0.50785229  0.25702442    -0.78300
Zr134      Zr  0.42434979  0.41064370  0.36877121     2.70100
O135        O  0.40235173  0.34886943  0.30462077    -0.79500
O136        O  0.35638680  0.37510386  0.41549981    -0.98600
Zr137      Zr  0.02178346  0.46260789  0.42286496     2.21500
Zr138      Zr  0.47527439  0.01833559  0.34818836     2.11100
O139        O  0.46813940  0.45326310  0.31275078    -2.47300
O140        O  0.49178099  0.42493580  0.35010372    -0.79300
O141        O  0.04461189  0.03404126  0.32832477    -0.71500
O142        O  0.45427328  0.44650938  0.43979138    -2.32500
O143        O  0.06846727  0.00577876  0.36636694    -2.28700
O144        O  0.43024128  0.47499196  0.40272098    -0.73300
H145        H  0.01218987  0.08491131  0.42922491     0.78700
H146        H  0.43764061  0.42877316  0.46249373     0.79800
H147        H  0.45523049  0.43944055  0.28438130     0.82000
H148        H  0.09543784  0.01054286  0.36038997     0.79600
H149        H  0.37407675  0.46569833  0.49218090     0.42700
H150        H  0.34871101  0.39535313  0.42601483     0.41600
H151        H  0.42855722  0.35161112  0.28834595     0.41300
H152        H  0.48491841  0.39875279  0.22693192     0.39300
H153        H  0.10471111  0.98699593  0.22516563     0.42400
H154        H  0.15765625  0.13192907  0.36071713     0.37200
H155        H  0.08435855  0.12623100  0.48799456     0.43300
H156        H  0.99894361  0.10109878  0.52343152     0.39700
H157        H  0.03253148  0.41746305  0.20538167     0.44600
H158        H  0.13831683  0.09270876  0.31939579     0.43300
H159        H  0.46128790  0.07156660  0.55772750     0.43500
H160        H  0.33702607  0.35183799  0.39253380     0.43800
C161        C  0.49844599  0.48591891  0.67843798    -0.05200
C162        C  0.47254096  0.49447590  0.67149136    -0.32600
C163        C  0.46957252  0.49286862  0.62659321     0.36600
C164        C  0.99966990  0.48976843  0.58888997    -0.05600
C165        C  0.00983632  0.46512410  0.59528680    -0.32500
C166        C  0.01212367  0.46572529  0.63997002     0.36500
H167        H  0.45400488  0.50214070  0.70100366     0.16900
O168        O  0.48801897  0.04425983  0.62334906    -0.60000
H169        H  0.01536526  0.44455088  0.56557616     0.16900
O170        O  0.02095571  0.44006084  0.64413980    -0.60100
H171        H  0.99348398  0.41267588  0.64693166     0.43900
H172        H  0.51669307  0.06998116  0.61890474     0.43900
C173        C  0.50982233  0.50262742  0.18136528    -0.05200
C174        C  0.53820837  0.49819208  0.14451751    -0.32600
C175        C  0.53815868  0.49711117  0.09859657     0.36600
C176        C  0.00750475  0.49998337  0.09033050    -0.05600
C177        C  0.98342146  0.00850510  0.12753150    -0.32500
C178        C  0.98332926  0.00905610  0.17321110     0.36500
H179        H  0.56057886  0.49540531  0.15118584     0.16900
O180        O  0.56661775  0.49293807  0.06395156    -0.60000
H181        H  0.96332865  0.01472256  0.12175014     0.16900
O182        O  0.95801574  0.01774810  0.20854516    -0.60100
H183        H  0.93106651  0.98987005  0.21101889     0.43900
H184        H  0.59002824  0.52211659  0.05991379     0.43900
C185        C  0.12165962  0.23748176  0.30062513    -0.05200
C186        C  0.13249106  0.23788331  0.33974203    -0.32600
C187        C  0.11192715  0.20084981  0.35537876     0.36600
C188        C  0.07962858  0.16216989  0.33181861    -0.05600
C189        C  0.06764041  0.16204419  0.29365209    -0.32500
C190        C  0.08822570  0.19944883  0.27823229     0.36500
H191        H  0.15721571  0.26722491  0.35834520     0.16900
O192        O  0.12299487  0.20312217  0.39454173    -0.60000
H193        H  0.04297157  0.13274844  0.27496523     0.16900
O194        O  0.07681050  0.19815843  0.24000903    -0.60100
H195        H  0.05129155  0.19777096  0.25195400     0.43900
H196        H  0.14858802  0.20359136  0.38351262     0.43900
C197        C  0.26032915  0.36902432  0.27046605    -0.05200
C198        C  0.28085821  0.41170622  0.29437290    -0.32600
C199        C  0.32158453  0.43472589  0.30477322     0.36600
C200        C  0.34160012  0.41454378  0.29383593    -0.05600
C201        C  0.32306775  0.37353135  0.26602378    -0.32500
C202        C  0.28323770  0.35111598  0.25327659     0.36500
H203        H  0.26469566  0.42683894  0.30773810     0.16900
O204        O  0.34002233  0.47580678  0.32903226    -0.60000
H205        H  0.33910966  0.35832690  0.25512468     0.16900
O206        O  0.26696446  0.31185806  0.22394667    -0.60100
H207        H  0.26633201  0.29426420  0.23975073     0.43900
H208        H  0.35520846  0.49296117  0.30473835     0.43900
C209        C  0.08952085  0.40006019  0.31594985    -0.05200
C210        C  0.11764281  0.40455884  0.27449114    -0.32600
C211        C  0.13732935  0.38371748  0.26061034     0.36600
C212        C  0.12876152  0.35772922  0.28820390    -0.05600
C213        C  0.10027355  0.35294383  0.32921350    -0.32500
C214        C  0.08041435  0.37322164  0.34280653     0.36500
H215        H  0.12471904  0.42457705  0.25299663     0.16900
O216        O  0.16354684  0.38760074  0.21926378    -0.60000
H217        H  0.09350227  0.33352287  0.35132534     0.16900
O218        O  0.05175837  0.36609459  0.38232318    -0.60100
H219        H  0.02429475  0.34273343  0.37102919     0.43900
H220        H  0.18935248  0.41662929  0.22523071     0.43900
C221        C  0.08294999  0.15646786  0.81904337    -0.05200
C222        C  0.11431835  0.16659607  0.78072596    -0.32600
C223        C  0.13471620  0.20469155  0.76719544     0.36600
C224        C  0.12381859  0.23316050  0.79250397    -0.05600
C225        C  0.09185271  0.22243105  0.83046858    -0.32500
C226        C  0.07128552  0.18422021  0.84367497     0.36500
H227        H  0.12320709  0.14506796  0.76154589     0.16900
O228        O  0.16466065  0.21356622  0.72883136    -0.60000
H229        H  0.08385551  0.24443985  0.85108849     0.16900
O230        O  0.04205531  0.17557465  0.88269768    -0.60100
H231        H  0.01816911  0.17154548  0.87453579     0.43900
H232        H  0.18906405  0.21978909  0.73866126     0.43900
C233        C  0.33986840  0.41752737  0.80790970    -0.05200
C234        C  0.32466234  0.38027399  0.77336013    -0.32600
C235        C  0.28516805  0.35835438  0.76046274     0.36600
C236        C  0.25948303  0.37266864  0.78386177    -0.05600
C237        C  0.27615265  0.41174401  0.81616253    -0.32500
C238        C  0.31643329  0.43450406  0.82767851     0.36500
H239        H  0.34304337  0.36752883  0.75727350     0.16900
O240        O  0.27115008  0.32184908  0.72655958    -0.60000
H241        H  0.25711867  0.42343622  0.83473349     0.16900
O242        O  0.33099321  0.47113381  0.86143232    -0.60100
H243        H  0.34657042  0.49411382  0.84411245     0.43900
H244        H  0.28181691  0.33113691  0.69651325     0.43900
C245        C  0.12597385  0.35429401  0.79342690    -0.05200
C246        C  0.13593140  0.38077189  0.76587192    -0.32600
C247        C  0.11590448  0.40085640  0.77735730     0.36600
C248        C  0.08625744  0.39545273  0.81772018    -0.05600
C249        C  0.07615735  0.36867079  0.84495477    -0.32500
C250        C  0.09558854  0.34811828  0.83309076     0.36500
H251        H  0.15940545  0.38599571  0.73549481     0.16900
O252        O  0.12701616  0.42722999  0.75018364    -0.60000
H253        H  0.05319344  0.36377413  0.87582037     0.16900
O254        O  0.08535895  0.32289623  0.86131074    -0.60100
H255        H  0.10802166  0.34047146  0.88140159     0.43900
H256        H  0.10915142  0.40860247  0.72463749     0.43900
C257        C  0.36647200  0.11987957  0.48238599    -0.05200
C258        C  0.34656281  0.07773186  0.45710033    -0.32600
C259        C  0.36523899  0.05645831  0.44567300     0.36600
C260        C  0.40495898  0.07753992  0.45798985    -0.05600
C261        C  0.42393384  0.11864054  0.48564241    -0.32500
C262        C  0.40491663  0.13992210  0.49791920     0.36500
H263        H  0.31684800  0.06145682  0.44506790     0.16900
O264        O  0.34435418  0.01494440  0.42258404    -0.60000
H265        H  0.45394956  0.13458053  0.49675896     0.16900
O266        O  0.42347468  0.17975547  0.52592102    -0.60100
H267        H  0.44883997  0.19844355  0.50631612     0.43900
H268        H  0.33113738  0.99844566  0.44726282     0.43900
C269        C  0.37861493  0.24030993  0.45774667    -0.05200
C270        C  0.36692661  0.24132714  0.42039663    -0.32600
C271        C  0.38830486  0.27884251  0.40527022     0.36600
C272        C  0.42227278  0.31665736  0.42769263    -0.05600
C273        C  0.43515990  0.31516224  0.46376858    -0.32500
C274        C  0.41373999  0.27734375  0.47866749     0.36500
H275        H  0.34076095  0.21281811  0.40297053     0.16900
O276        O  0.37588906  0.27793756  0.36813077    -0.60000
H277        H  0.46099637  0.34364698  0.48167295     0.16900
O278        O  0.42578556  0.27749073  0.51554706    -0.60100
H279        H  0.45101480  0.27747047  0.50232588     0.43900
H280        H  0.35053352  0.27776367  0.38119298     0.43900
C281        C  0.15600225  0.06770622  0.47764069    -0.05200
C282        C  0.17601001  0.04730848  0.46278068    -0.32600
C283        C  0.21711448  0.06905432  0.47101158     0.36600
C284        C  0.23857180  0.11175956  0.49571483    -0.05600
C285        C  0.21659605  0.13040254  0.51498439    -0.32500
C286        C  0.17567488  0.10871775  0.50609337     0.36500
H287        H  0.16118763  0.01567643  0.44106514     0.16900
O288        O  0.23691272  0.04920263  0.45119121    -0.60000
H289        H  0.23190615  0.16266039  0.53506066     0.16900
O290        O  0.15594971  0.12869548  0.52333582    -0.60100
H291        H  0.13769511  0.11801975  0.55195163     0.43900
H292        H  0.25139762  0.05746098  0.42056527     0.43900
C293        C  0.37543254  0.12602932  0.97816318    -0.05200
C294        C  0.38680605  0.11376665  0.93075592    -0.32600
C295        C  0.40645551  0.09318662  0.91662339     0.36600
C296        C  0.41555290  0.08479122  0.95045015    -0.05600
C297        C  0.40412569  0.09748160  0.99822656    -0.32500
C298        C  0.38381842  0.11759154  0.01207613     0.36500
H299        H  0.37991475  0.11978925  0.90441635     0.16900
O300        O  0.41530463  0.08032415  0.86955473    -0.60000
H301        H  0.41062034  0.09159762  0.02502270     0.16900
O302        O  0.37284274  0.12941946  0.05871817    -0.60100
H303        H  0.34490814  0.10419588  0.06670951     0.43900
H304        H  0.44107521  0.10602346  0.85915291     0.43900
C305        C  0.42280446  0.32405686  0.94601920    -0.05200
C306        C  0.39600393  0.28565901  0.91710655    -0.32600
C307        C  0.37521429  0.24728233  0.92983068     0.36600
C308        C  0.38066373  0.24664238  0.97231156    -0.05600
C309        C  0.40847415  0.28472006  0.00073632    -0.32500
C310        C  0.42931630  0.32342628  0.98802544     0.36500
H311        H  0.39096895  0.28538747  0.88444947     0.16900
O312        O  0.34910699  0.21043608  0.90069692    -0.60000
H313        H  0.41303404  0.28448077  0.03338499     0.16900
O314        O  0.45468071  0.36033689  0.01762107    -0.60100
H315        H  0.43669761  0.36984143  0.03724533     0.43900
H316        H  0.36548080  0.19855817  0.88338354     0.43900
C317        C  0.24398108  0.11099397  0.99006909    -0.05200
C318        C  0.21958553  0.12673919  0.01293227    -0.32600
C319        C  0.17985030  0.10598088  0.00105502     0.36600
C320        C  0.16319039  0.06802079  0.96714573    -0.05600
C321        C  0.18591122  0.05040745  0.94690193    -0.32500
C322        C  0.22622656  0.07175255  0.95762174     0.36500
H323        H  0.23224425  0.15644326  0.03838984     0.16900
O324        O  0.15767181  0.12326960  0.02224896    -0.60000
H325        H  0.17363711  0.02155366  0.92011145     0.16900
O326        O  0.24945441  0.05619429  0.93246946    -0.60100
H327        H  0.23792176  0.03147613  0.94514973     0.43900
H328        H  0.17030653  0.14664042  0.00655958     0.43900
C329        C  0.35186763  0.64662550  0.99293000     0.03400
C330        C  0.30806076  0.62204806  0.99972004    -0.12800
C331        C  0.28672460  0.63801498  0.99835902     0.00900
C332        C  0.31000882  0.68011806  0.99393803    -0.11300
C333        C  0.35379321  0.70513918  0.98790368     0.03400
C334        C  0.37460511  0.68833942  0.98779435    -0.10700
H335        H  0.29087057  0.58954865  0.00245896     0.09000
H336        H  0.29423165  0.69260851  0.99140329     0.06500
H337        H  0.40834970  0.70644641  0.97993476     0.06400
C338        C  0.34711565  0.64210951  0.48997076     0.03400
C339        C  0.30352004  0.62098610  0.50051527    -0.12800
C340        C  0.28378293  0.63697534  0.49482672     0.00900
C341        C  0.30861756  0.67653605  0.48258786    -0.11300
C342        C  0.35230240  0.69908968  0.47428876     0.03400
C343        C  0.37132059  0.68152712  0.47756698    -0.10700
H344        H  0.28476328  0.59072421  0.51038782     0.09000
H345        H  0.29391605  0.68904536  0.47725838     0.06500
H346        H  0.40460391  0.69716242  0.46702633     0.06400
C347        C  0.15121737  0.83712970  0.78347135     0.03400
C348        C  0.19503939  0.86253068  0.77901765    -0.12800
C349        C  0.21647365  0.84598951  0.77812263     0.00900
C350        C  0.19330369  0.80360458  0.78151392    -0.11300
C351        C  0.14967479  0.77748839  0.78392092     0.03400
C352        C  0.12894579  0.79428805  0.78379543    -0.10700
H353        H  0.21219792  0.89566607  0.77887153     0.09000
H354        H  0.20901846  0.79164585  0.78553047     0.06500
H355        H  0.09514150  0.77455133  0.78659109     0.06400
C356        C  0.14902304  0.83504157  0.27795258     0.03400
C357        C  0.19293714  0.85868634  0.27105625    -0.12800
C358        C  0.21343839  0.84170035  0.27233270     0.00900
C359        C  0.18899195  0.80046139  0.28009066    -0.11300
C360        C  0.14529649  0.77610965  0.28523563     0.03400
C361        C  0.12553695  0.79319244  0.28315071    -0.10700
H362        H  0.21098950  0.89115942  0.26783814     0.09000
H363        H  0.20367144  0.78790651  0.28525711     0.06500
H364        H  0.09175047  0.77518170  0.28969433     0.06400
O365        O  0.12310903  0.57292405  0.93432806    -0.75000
O366        O  0.09628590  0.01002580  0.94504048    -0.53900
C367        C  0.12298065  0.54786481  0.95008038     0.78700
O368        O  0.44118395  0.55464330  0.96740573    -0.59600
O369        O  0.44588344  0.55350869  0.89137521    -0.52700
C370        C  0.43490748  0.56282405  0.93531572     0.70700
O371        O  0.49075385  0.51440388  0.03526582    -0.74200
O372        O  0.01966570  0.97792401  0.00721204    -0.54800
C373        C  0.00573862  0.99682113  0.04145926     0.76700
O374        O  0.08913674  0.61729335  0.85219738    -0.59300
O375        O  0.02660600  0.59021047  0.83178877    -0.52500
C376        C  0.06553464  0.61916296  0.83543339     0.73300
Zr377      Zr  0.08060569  0.56969714  0.89085053     2.54700
O378        O  0.10566095  0.63634740  0.94789606    -0.79900
O379        O  0.14896845  0.59721732  0.84420952    -0.93300
Zr380      Zr  0.47489033  0.52421749  0.97263319     2.64700
O381        O  0.00461090  0.59176813  0.02722790    -0.98300
O382        O  0.41097343  0.99411318  0.02754477    -0.80300
O383        O  0.03824828  0.53291660  0.95222218    -0.83700
O384        O  0.01572390  0.56126300  0.91332487    -2.18400
O385        O  0.02077555  0.97527816  0.73305878    -0.67100
O386        O  0.48504339  0.50521412  0.76110025    -0.51600
C387        C  0.50377394  0.99036577  0.72765357     0.71700
O388        O  0.41947609  0.86421212  0.91108671    -0.60000
O389        O  0.47855571  0.89421041  0.94140784    -0.52000
C390        C  0.44121766  0.86325002  0.93222443     0.73500
O391        O  0.38019429  0.91028857  0.83828152    -0.71400
O392        O  0.41095760  0.97461304  0.82298187    -0.50100
C393        C  0.38068960  0.93557910  0.82244136     0.74900
O394        O  0.06286656  0.92840192  0.79995993    -0.66700
O395        O  0.05744325  0.92846713  0.87599963    -0.53900
C396        C  0.06823224  0.91938668  0.83191122     0.73300
Zr397      Zr  0.03269678  0.96238344  0.79617720     2.77500
O398        O  0.50112630  0.89294444  0.73793931    -0.97500
O399        O  0.09944259  0.99475583  0.74652979    -0.78300
Zr400      Zr  0.42416440  0.91363396  0.87985276     2.70100
O401        O  0.39099018  0.84477609  0.82660452    -0.79500
O402        O  0.35938530  0.89046647  0.93320039    -0.98600
Zr403      Zr  0.02634021  0.96553279  0.92326171     2.21500
Zr404      Zr  0.47804661  0.51719035  0.84533791     2.11100
O405        O  0.46585291  0.94919732  0.81738395    -2.47300
O406        O  0.48906190  0.92194735  0.85615327    -0.79300
O407        O  0.04577763  0.52994226  0.82319771    -0.71500
O408        O  0.46000380  0.95389324  0.94687204    -2.32500
O409        O  0.06835402  0.50211783  0.86273145    -2.28700
O410        O  0.43657342  0.98128003  0.90796996    -0.73300
H411        H  0.02024656  0.58852302  0.92247623     0.78700
H412        H  0.44441556  0.93898086  0.97219055     0.79800
H413        H  0.45098976  0.93410040  0.79039650     0.82000
H414        H  0.09454283  0.50515016  0.85564142     0.79600
H415        H  0.39179447  0.96471287  0.01109056     0.42700
H416        H  0.33813755  0.86287646  0.91556757     0.41600
H417        H  0.41413164  0.84612400  0.80263269     0.41300
H418        H  0.47704868  0.88858248  0.72986235     0.39300
H419        H  0.09140390  0.47349067  0.71523445     0.42400
H420        H  0.15273178  0.57416420  0.83525578     0.37200
H421        H  0.09481180  0.62819439  0.97860620     0.43300
H422        H  0.01162369  0.61167994  0.00953752     0.39700
H423        H  0.02153853  0.90249991  0.70970878     0.44600
H424        H  0.16912962  0.61938397  0.86683762     0.43300
H425        H  0.48651246  0.59566034  0.04444489     0.43500
H426        H  0.36282327  0.88327087  0.95813677     0.43800
O427        O  0.11666566  0.57402539  0.44229469    -0.75000
O428        O  0.09006930  0.00904006  0.45258829    -0.53900
C429        C  0.11759490  0.54870956  0.45616701     0.77700
O430        O  0.43289568  0.54756813  0.47246571    -0.59600
O431        O  0.43738706  0.54871224  0.39703331    -0.52700
C432        C  0.42654114  0.55657685  0.44145792     0.70700
O433        O  0.47471629  0.49817929  0.53445172    -0.74200
O434        O  0.01167684  0.97108168  0.50716773    -0.54800
C435        C  0.99655096  0.98873720  0.54164715     0.76700
O436        O  0.07907497  0.61896461  0.36604791    -0.59300
O437        O  0.01958880  0.58974419  0.33705250    -0.52500
C438        C  0.05702253  0.62050441  0.34616782     0.73300
Zr439      Zr  0.07347899  0.57028076  0.39937797     2.54700
O440        O  0.09303263  0.63305624  0.46175258    -0.79900
O441        O  0.14301714  0.60504714  0.35532043    -0.93300
Zr442      Zr  0.46273100  0.51210430  0.47227341     2.64700
O443        O  0.98345597  0.57435697  0.53998353    -0.98300
O444        O  0.39392347  0.97285084  0.51515374    -0.80300
O445        O  0.03025206  0.52837866  0.45610475    -0.83700
O446        O  0.00634694  0.55672216  0.41912003    -2.18400
O447        O  0.02534914  0.98316033  0.23436995    -0.67100
O448        O  0.48964701  0.51428816  0.26354233    -0.51600
C449        C  0.50863948  0.00000344  0.23038389     0.71700
O450        O  0.41860394  0.85859298  0.39645661    -0.60000
O451        O  0.47573393  0.88861286  0.43070784    -0.52000
C452        C  0.43985210  0.85683651  0.41737690     0.73500
O453        O  0.37956786  0.90790271  0.32979644    -0.71400
O454        O  0.40821128  0.97303257  0.31862265    -0.50100
C455        C  0.37924467  0.93320264  0.31501180     0.74900
O456        O  0.06497158  0.93223914  0.29902141    -0.66700
O457        O  0.05752220  0.92991875  0.37463797    -0.53900
C458        C  0.06903045  0.92160309  0.33058368     0.73300
Zr459      Zr  0.03570276  0.96804495  0.29712149     2.77500
O460        O  0.50719692  0.90238650  0.23653746    -0.97500
O461        O  0.10552016  0.00702472  0.25504053    -0.78300
Zr462      Zr  0.42272773  0.91119206  0.37254188     2.70100
O463        O  0.39184998  0.84508255  0.31460987    -0.79500
O464        O  0.35782305  0.88551651  0.42592920    -0.98600
Zr465      Zr  0.02290474  0.96330769  0.42330796     2.21500
Zr466      Zr  0.47534145  0.51860577  0.34700637     2.11100
O467        O  0.46679535  0.95234020  0.31507911    -2.47300
O468        O  0.48970384  0.92400021  0.35280293    -0.79300
O469        O  0.04239721  0.53340285  0.32919831    -0.71500
O470        O  0.45407251  0.94739222  0.44269329    -2.32500
O471        O  0.06715762  0.50563492  0.36650242    -2.28700
O472        O  0.43018139  0.97629368  0.40524540    -0.73300
H473        H  0.00920715  0.58322770  0.43041942     0.78700
H474        H  0.43759721  0.93006860  0.46580206     0.79800
H475        H  0.45383578  0.93835880  0.28672904     0.82000
H476        H  0.09423523  0.51065045  0.36050973     0.79600
H477        H  0.39243373  0.99367622  0.54263174     0.42700
H478        H  0.35083546  0.90555814  0.43036804     0.41600
H479        H  0.41423522  0.85035444  0.28780548     0.41300
H480        H  0.48583370  0.89997494  0.22483578     0.39300
H481        H  0.11056471  0.53541229  0.25930280     0.42400
H482        H  0.14794577  0.58270047  0.34085495     0.37200
H483        H  0.07986109  0.62212869  0.49090497     0.43300
H484        H  0.99619338  0.59849878  0.52566381     0.39700
H485        H  0.03191643  0.91192234  0.20897055     0.44600
H486        H  0.16234029  0.62440968  0.37935169     0.43300
H487        H  0.46190905  0.57165750  0.55473181     0.43500
H488        H  0.33658013  0.85894401  0.40713447     0.43800
C489        C  0.50224217  0.98935351  0.67951320    -0.05200
C490        C  0.49530589  0.01644180  0.67277558    -0.32600
C491        C  0.49324935  0.01603209  0.62805638     0.36600
C492        C  0.99833428  0.98992550  0.58973470    -0.05600
C493        C  0.01739575  0.97323942  0.59558605    -0.32500
C494        C  0.01978692  0.97365588  0.64009258     0.36500
H495        H  0.49203024  0.03864106  0.70224877     0.16900
O496        O  0.44275414  0.50020196  0.62194252    -0.60000
H497        H  0.03075852  0.95971013  0.56548595     0.16900
O498        O  0.03935896  0.95748082  0.64344567    -0.60100
H499        H  0.01839570  0.92637578  0.63749518     0.43900
H500        H  0.45797356  0.53140649  0.62978789     0.43900
C501        C  0.50982309  0.00161083  0.18234539    -0.05200
C502        C  0.53720265  0.99556883  0.14531481    -0.32600
C503        C  0.53774558  0.99509443  0.09938737     0.36600
C504        C  0.00803582  0.99904859  0.08969579    -0.05600
C505        C  0.98319271  0.50980160  0.12820581    -0.32500
C506        C  0.98319982  0.51049546  0.17393488     0.36500
H507        H  0.55844617  0.99119957  0.15185806     0.16900
O508        O  0.56559501  0.98986121  0.06475473    -0.60000
H509        H  0.96336453  0.51634730  0.12243279     0.16900
O510        O  0.95896258  0.52058893  0.20944240    -0.60100
H511        H  0.93116939  0.49338733  0.21161910     0.43900
H512        H  0.58960495  0.01881455  0.06053728     0.43900
C513        C  0.12067573  0.73600387  0.30101530    -0.05200
C514        C  0.12962682  0.73638379  0.34153807    -0.32600
C515        C  0.10828253  0.69924975  0.35723641     0.36600
C516        C  0.07699312  0.66060943  0.33242756    -0.05600
C517        C  0.06682898  0.66043758  0.29275807    -0.32500
C518        C  0.08841424  0.69790182  0.27705425     0.36500
H519        H  0.15349060  0.76576034  0.36115092     0.16900
O520        O  0.11765811  0.70128470  0.39754454    -0.60000
H521        H  0.04307191  0.63105987  0.27304812     0.16900
O522        O  0.07927119  0.69662078  0.23706919    -0.60100
H523        H  0.05434864  0.69729835  0.24706921     0.43900
H524        H  0.14386805  0.70290174  0.38825127     0.43900
C525        C  0.25957305  0.86851327  0.27327050    -0.05200
C526        C  0.27989793  0.91090801  0.29802067    -0.32600
C527        C  0.32113383  0.93421265  0.30695620     0.36600
C528        C  0.34181205  0.91448621  0.29399060    -0.05600
C529        C  0.32325981  0.87368795  0.26560857    -0.32500
C530        C  0.28287427  0.85105758  0.25423604     0.36500
H531        H  0.26329794  0.92558993  0.31283587     0.16900
O532        O  0.33957902  0.97510591  0.33180578    -0.60000
H533        H  0.33964388  0.85876006  0.25340445     0.16900
O534        O  0.26640085  0.81199863  0.22449530    -0.60100
H535        H  0.26558376  0.79406570  0.23993396     0.43900
H536        H  0.35087606  0.99229347  0.30835150     0.43900
C537        C  0.08819055  0.89798229  0.31549485    -0.05200
C538        C  0.11561065  0.90143532  0.27352018    -0.32600
C539        C  0.13568462  0.88106177  0.26040235     0.36600
C540        C  0.12762386  0.85596924  0.28881729    -0.05600
C541        C  0.09945065  0.85172561  0.33000707    -0.32500
C542        C  0.07972270  0.87211256  0.34329369     0.36500
H543        H  0.12228709  0.92073308  0.25132187     0.16900
O544        O  0.16228094  0.88501285  0.21935358    -0.60000
H545        H  0.09316186  0.83297596  0.35268715     0.16900
O546        O  0.05229518  0.86652121  0.38379779    -0.60100
H547        H  0.02432901  0.84300890  0.37386400     0.43900
H548        H  0.18792702  0.91414598  0.22549208     0.43900
C549        C  0.08461433  0.65780482  0.81985176    -0.05200
C550        C  0.11656125  0.66841583  0.78210162    -0.32600
C551        C  0.13685920  0.70650976  0.76852101     0.36600
C552        C  0.12561684  0.73476958  0.79349469    -0.05600
C553        C  0.09276914  0.72334270  0.83058088    -0.32500
C554        C  0.07206183  0.68497236  0.84349625     0.36500
H555        H  0.12581652  0.64715104  0.76321518     0.16900
O556        O  0.16685922  0.71545055  0.73020481    -0.60000
H557        H  0.08404294  0.74485486  0.85069626     0.16900
O558        O  0.04133829  0.67544208  0.88106692    -0.60100
H559        H  0.01539613  0.66196559  0.86811810     0.43900
H560        H  0.19117733  0.72146421  0.73997754     0.43900
C561        C  0.34310951  0.91806448  0.80313559    -0.05200
C562        C  0.32671299  0.87995374  0.76976121    -0.32600
C563        C  0.28708146  0.85846994  0.75734396     0.36600
C564        C  0.26218706  0.87375134  0.78057564    -0.05600
C565        C  0.28023265  0.91381893  0.81100214    -0.32500
C566        C  0.32081628  0.93635024  0.82155995     0.36500
H567        H  0.34425399  0.86625195  0.75426768     0.16900
O568        O  0.27221697  0.82154618  0.72403382    -0.60000
H569        H  0.26206803  0.92657379  0.82909238     0.16900
O570        O  0.33671730  0.97413565  0.85347851    -0.60100
H571        H  0.34870531  0.99561521  0.83517324     0.43900
H572        H  0.27619541  0.82943305  0.69494511     0.43900
C573        C  0.12849858  0.85646520  0.79402552    -0.05200
C574        C  0.13868999  0.88300918  0.76639142    -0.32600
C575        C  0.11867385  0.90306737  0.77757048     0.36600
C576        C  0.08834005  0.89702170  0.81727530    -0.05600
C577        C  0.07814959  0.87033723  0.84470191    -0.32500
C578        C  0.09808170  0.85040000  0.83360215     0.36500
H579        H  0.16243872  0.88843211  0.73627982     0.16900
O580        O  0.13065954  0.93029277  0.75105456    -0.60000
H581        H  0.05495704  0.86528792  0.87536234     0.16900
O582        O  0.08855558  0.82613012  0.86262844    -0.60100
H583        H  0.10728681  0.84615678  0.88723163     0.43900
H584        H  0.11606932  0.91197042  0.72289706     0.43900
C585        C  0.36613013  0.61950092  0.48328528    -0.05200
C586        C  0.34641222  0.57747885  0.45767897    -0.32600
C587        C  0.36538165  0.55643587  0.44547406     0.36600
C588        C  0.40490343  0.57732191  0.45810496    -0.05600
C589        C  0.42392480  0.61839791  0.48584505    -0.32500
C590        C  0.40497866  0.63977907  0.49815081     0.36500
H591        H  0.31675691  0.56122419  0.44552469     0.16900
O592        O  0.34520634  0.51546388  0.42068165    -0.60000
H593        H  0.45405710  0.63435443  0.49668765     0.16900
O594        O  0.42425453  0.68007709  0.52507568    -0.60100
H595        H  0.44939815  0.69809307  0.50471949     0.43900
H596        H  0.33076934  0.49787028  0.44445161     0.43900
C597        C  0.37748906  0.73891933  0.45748196    -0.05200
C598        C  0.36670043  0.73963962  0.41912574    -0.32600
C599        C  0.38765326  0.77735626  0.40453135     0.36600
C600        C  0.42049180  0.81549644  0.42826415    -0.05600
C601        C  0.43258120  0.81421603  0.46524091    -0.32500
C602        C  0.41134479  0.77635270  0.47989590     0.36500
H603        H  0.34141105  0.71082256  0.40072999     0.16900
O604        O  0.37593266  0.77638863  0.36674681    -0.60000
H605        H  0.45745369  0.84295662  0.48421791     0.16900
O606        O  0.42206194  0.77682571  0.51813133    -0.60100
H607        H  0.44725772  0.77663468  0.50630285     0.43900
H608        H  0.34926284  0.77382449  0.37851758     0.43900
C609        C  0.15539897  0.56729931  0.47624467    -0.05200
C610        C  0.17524494  0.54668267  0.46102393    -0.32600
C611        C  0.21624206  0.56803421  0.46944699     0.36600
C612        C  0.23768755  0.61046428  0.49479043    -0.05600
C613        C  0.21597210  0.62937925  0.51413539    -0.32500
C614        C  0.17530870  0.60826221  0.50479792     0.36500
H615        H  0.16035835  0.51518549  0.43900575     0.16900
O616        O  0.23600284  0.54815885  0.44931215    -0.60000
H617        H  0.23141529  0.66155555  0.53444565     0.16900
O618        O  0.15617274  0.62882507  0.52155692    -0.60100
H619        H  0.14118890  0.62195510  0.55266740     0.43900
H620        H  0.24954433  0.55566558  0.41822944     0.43900
C621        C  0.37329819  0.62576357  0.97961680    -0.05200
C622        C  0.38656830  0.61599024  0.93217220    -0.32600
C623        C  0.40665827  0.59575596  0.91716249     0.36600
C624        C  0.41365668  0.58454488  0.95007456    -0.05600
C625        C  0.40004146  0.59445776  0.99787202    -0.32500
C626        C  0.37976916  0.61466282  0.01262213     0.36500
H627        H  0.38112840  0.62400730  0.90646826     0.16900
O628        O  0.41852496  0.58650295  0.87011472    -0.60000
H629        H  0.40495988  0.58647445  0.02404034     0.16900
O630        O  0.36725572  0.62424198  0.05933692    -0.60100
H631        H  0.33808315  0.59958364  0.06486932     0.43900
H632        H  0.44341646  0.61383641  0.86229356     0.43900
C633        C  0.42106660  0.82324886  0.94643927    -0.05200
C634        C  0.38989820  0.78551753  0.92101562    -0.32600
C635        C  0.36835426  0.74717939  0.93412163     0.36600
C636        C  0.37731589  0.74582739  0.97368517    -0.05600
C637        C  0.40911712  0.78319856  0.99872262    -0.32500
C638        C  0.43088880  0.82186513  0.98549511     0.36500
H639        H  0.38217464  0.78558501  0.89050725     0.16900
O640        O  0.33854263  0.71101935  0.90783646    -0.60000
H641        H  0.41650188  0.78247711  0.02903564     0.16900
O642        O  0.46100441  0.85800447  0.01143710    -0.60100
H643        H  0.44617068  0.86952052  0.03567499     0.43900
H644        H  0.35403546  0.70112374  0.88208447     0.43900
C645        C  0.24128213  0.60989791  0.99374984    -0.05200
C646        C  0.21680337  0.62563993  0.01567169    -0.32600
C647        C  0.17716996  0.60454708  0.00332748     0.36600
C648        C  0.16058217  0.56616807  0.97004513    -0.05600
C649        C  0.18326705  0.54847550  0.95096940    -0.32500
C650        C  0.22356827  0.57021474  0.96201812     0.36500
H651        H  0.22938525  0.65566593  0.04057862     0.16900
O652        O  0.15513892  0.62207533  0.02323322    -0.60000
H653        H  0.17106186  0.51929819  0.92464893     0.16900
O654        O  0.24683882  0.55455618  0.93771005    -0.60100
H655        H  0.23582526  0.53072226  0.95171233     0.43900
H656        H  0.16721232  0.64416193  0.00577415     0.43900
C657        C  0.85300609  0.14718678  0.99256274     0.03400
C658        C  0.80924356  0.12226131  0.99770373    -0.12800
C659        C  0.78822031  0.13804000  0.99504297     0.00900
C660        C  0.81156650  0.17996792  0.99014144    -0.11300
C661        C  0.85529617  0.20526605  0.98547709     0.03400
C662        C  0.87594649  0.18887448  0.98712564    -0.10700
H663        H  0.79189136  0.08968544  0.00030843     0.09000
H664        H  0.79591294  0.19216798  0.98647433     0.06500
H665        H  0.90975298  0.20722256  0.98037650     0.06400
C666        C  0.84823517  0.14195483  0.48803427     0.03400
C667        C  0.80472585  0.12098548  0.49852585    -0.12800
C668        C  0.78527612  0.13717021  0.49276894     0.00900
C669        C  0.81032320  0.17697050  0.48110929    -0.11300
C670        C  0.85398165  0.19933543  0.47285730     0.03400
C671        C  0.87271062  0.18133840  0.47554473    -0.10700
H672        H  0.78582472  0.09074620  0.50848934     0.09000
H673        H  0.79582002  0.18982853  0.47614800     0.06500
H674        H  0.90595156  0.19672720  0.46480778     0.06400
C675        C  0.64913865  0.33556643  0.78589493     0.03400
C676        C  0.69287692  0.36193348  0.78334987    -0.12800
C677        C  0.71474598  0.34617104  0.78338128     0.00900
C678        C  0.69228385  0.30383817  0.78631572    -0.11300
C679        C  0.64884861  0.27686552  0.78701768     0.03400
C680        C  0.62759752  0.29271719  0.78568012    -0.10700
H681        H  0.70962952  0.39510475  0.78366407     0.09000
H682        H  0.70838880  0.29247297  0.79080799     0.06500
H683        H  0.59390051  0.27211193  0.78685605     0.06400
C684        C  0.64846147  0.33415896  0.27580411     0.03400
C685        C  0.69245113  0.35787512  0.26861910    -0.12800
C686        C  0.71316946  0.34127495  0.27050386     0.00900
C687        C  0.68884468  0.30041364  0.27918573    -0.11300
C688        C  0.64523697  0.27588443  0.28441101     0.03400
C689        C  0.62517070  0.29254051  0.28192250    -0.10700
H690        H  0.71037725  0.39011189  0.26467151     0.09000
H691        H  0.70353148  0.28820281  0.28508959     0.06500
H692        H  0.59137848  0.27433551  0.28852394     0.06400
O693        O  0.62371931  0.07247724  0.93385436    -0.75000
O694        O  0.59524350  0.50971877  0.94538554    -0.53900
C695        C  0.62416270  0.04725750  0.94851280     0.78700
O696        O  0.94061060  0.05435815  0.97025667    -0.59600
O697        O  0.94539341  0.05300232  0.89413640    -0.52700
C698        C  0.93431812  0.06231046  0.93803926     0.70700
O699        O  0.98946542  0.01361935  0.03685967    -0.74200
O700        O  0.52030324  0.47802630  0.00633149    -0.54800
C701        C  0.50677551  0.49747895  0.04023537     0.76700
O702        O  0.59008172  0.11482601  0.84869487    -0.59300
O703        O  0.52671123  0.08844795  0.83133771    -0.52500
C704        C  0.56591763  0.11698206  0.83346311     0.73300
Zr705      Zr  0.58216495  0.06813379  0.88805768     2.54700
O706        O  0.61234562  0.13728165  0.94085845    -0.79900
O707        O  0.64936977  0.09245815  0.83927341    -0.93300
Zr708      Zr  0.97338594  0.02271177  0.97393400     2.64700
O709        O  0.50749370  0.09067850  0.02801049    -0.98300
O710        O  0.90787305  0.49180513  0.02656633    -0.80300
O711        O  0.54034176  0.03229062  0.95029390    -0.83700
O712        O  0.51753100  0.06034126  0.91202780    -2.18400
O713        O  0.51700155  0.47131644  0.73167547    -0.67100
O714        O  0.98845892  0.00880485  0.76293261    -0.51600
C715        C  0.00558179  0.49251327  0.72797429     0.71700
O716        O  0.91780983  0.36443473  0.91096096    -0.60000
O717        O  0.97695037  0.39464826  0.94139331    -0.52000
C718        C  0.93968916  0.36358574  0.93206071     0.73500
O719        O  0.87979938  0.41287058  0.83967311    -0.71400
O720        O  0.91060944  0.47713917  0.82408341    -0.50100
C721        C  0.88020670  0.43829055  0.82422307     0.74900
O722        O  0.55853262  0.42386028  0.79871916    -0.66700
O723        O  0.55637067  0.42726197  0.87510397    -0.53900
C724        C  0.56531271  0.41634809  0.83087971     0.73300
Zr725      Zr  0.52929487  0.45874058  0.79493898     2.77500
O726        O  0.99833415  0.39384094  0.74105801    -0.97500
O727        O  0.59589792  0.48944352  0.74488266    -0.78300
Zr728      Zr  0.92347814  0.41453339  0.87968144     2.70100
O729        O  0.89183473  0.34679448  0.82426184    -0.79500
O730        O  0.85920662  0.39131311  0.93395031    -0.98600
Zr731      Zr  0.52563054  0.46473311  0.92250304     2.21500
Zr732      Zr  0.97927782  0.01872008  0.84693376     2.11100
O733        O  0.96557930  0.45084258  0.81775869    -2.47300
O734        O  0.98843633  0.42304481  0.85702945    -0.79300
O735        O  0.54608052  0.02816030  0.82141054    -0.71500
O736        O  0.95845889  0.45444879  0.94720277    -2.32500
O737        O  0.56951395  0.00041329  0.86055369    -2.28700
O738        O  0.93583359  0.48209585  0.90752508    -0.73300
H739        H  0.52235495  0.08773024  0.92107581     0.78700
H740        H  0.94255784  0.43928235  0.97229608     0.79800
H741        H  0.95093609  0.43593101  0.79060160     0.82000
H742        H  0.59564446  0.00328109  0.85317621     0.79600
H743        H  0.88708024  0.46623288  0.00641188     0.42700
H744        H  0.84692325  0.40363826  0.92846015     0.41600
H745        H  0.91582139  0.34626629  0.80502233     0.41300
H746        H  0.97274846  0.38871205  0.73612954     0.39300
H747        H  0.61817983  0.01761690  0.76700005     0.42400
H748        H  0.66008165  0.07916764  0.84602628     0.37200
H749        H  0.59536293  0.13138514  0.97157519     0.43300
H750        H  0.51791962  0.11171029  0.00988660     0.39700
H751        H  0.51500220  0.39917834  0.70771735     0.44600
H752        H  0.66781864  0.12285242  0.85352050     0.43300
H753        H  0.97900205  0.08929473  0.05038003     0.43500
H754        H  0.84035833  0.36057359  0.92145407     0.43800
O755        O  0.61705946  0.07408527  0.44268983    -0.75000
O756        O  0.59006992  0.50909343  0.44998612    -0.53900
C757        C  0.61837678  0.04863236  0.45569404     0.77700
O758        O  0.93433969  0.04907942  0.47228165    -0.59600
O759        O  0.93908680  0.04991712  0.39661087    -0.52700
C760        C  0.92801299  0.05771267  0.44090945     0.70700
O761        O  0.98029811  0.00553096  0.53715913    -0.74200
O762        O  0.51015431  0.46782335  0.50437795    -0.54800
C763        C  0.49230775  0.48264718  0.53886128     0.76700
O764        O  0.58059824  0.11895630  0.36559776    -0.59300
O765        O  0.52152311  0.08996327  0.33589563    -0.52500
C766        C  0.55893837  0.12056146  0.34517241     0.73300
Zr767      Zr  0.57450208  0.06975834  0.39850484     2.54700
O768        O  0.59805151  0.13486019  0.45810474    -0.79900
O769        O  0.64299283  0.09969643  0.35202908    -0.93300
Zr770      Zr  0.96507516  0.01528527  0.47430781     2.64700
O771        O  0.48724064  0.07583706  0.53791660    -0.98300
O772        O  0.89351200  0.47266987  0.51778522    -0.80300
O773        O  0.53111673  0.02806908  0.45544182    -0.83700
O774        O  0.50772562  0.05693911  0.41812362    -2.18400
O775        O  0.52718398  0.48610636  0.23340961    -0.67100
O776        O  0.99027164  0.01395084  0.26461914    -0.51600
C777        C  0.00678734  0.49920685  0.23084901     0.71700
O778        O  0.91849837  0.35971721  0.39931200    -0.60000
O779        O  0.97668903  0.38947840  0.43122661    -0.52000
C780        C  0.94037301  0.35788807  0.41908463     0.73500
O781        O  0.87869888  0.40758567  0.33109402    -0.71400
O782        O  0.90668399  0.47259441  0.32027802    -0.50100
C783        C  0.87794115  0.43273222  0.31659340     0.74900
O784        O  0.56509050  0.43228085  0.29560649    -0.66700
O785        O  0.55807690  0.42997103  0.37109621    -0.53900
C786        C  0.56930109  0.42156607  0.32696477     0.73300
Zr787      Zr  0.53628499  0.46902962  0.29519744     2.77500
O788        O  0.01193381  0.40638630  0.23273644    -0.97500
O789        O  0.60724394  0.50868515  0.25597213    -0.78300
Zr790      Zr  0.92260703  0.41087585  0.37260233     2.70100
O791        O  0.89876165  0.34770006  0.31033452    -0.79500
O792        O  0.85375819  0.37739737  0.41819941    -0.98600
Zr793      Zr  0.52280951  0.46247550  0.42065380     2.21500
Zr794      Zr  0.97656911  0.01929074  0.34817525     2.11100
O795        O  0.96639306  0.45240553  0.31559694    -2.47300
O796        O  0.98983359  0.42427870  0.35281876    -0.79300
O797        O  0.54326417  0.03293663  0.32851982    -0.71500
O798        O  0.95328148  0.44711099  0.44334418    -2.32500
O799        O  0.56751840  0.00477524  0.36594001    -2.28700
O800        O  0.92913194  0.47552471  0.40599097    -0.73300
H801        H  0.51087154  0.08358954  0.42936835     0.78700
H802        H  0.93698478  0.42977572  0.46644742     0.79800
H803        H  0.95333881  0.43832174  0.28731043     0.82000
H804        H  0.59453092  0.00963951  0.35992830     0.79600
H805        H  0.89725964  0.48724342  0.55099250     0.42700
H806        H  0.84536668  0.39649875  0.42371039     0.41600
H807        H  0.92441126  0.35360129  0.28848559     0.41300
H808        H  0.98576162  0.39906507  0.22631234     0.39300
H809        H  0.62323901  0.01695195  0.27533272     0.42400
H810        H  0.65730693  0.13068449  0.36263546     0.37200
H811        H  0.58469929  0.12537356  0.48813451     0.43300
H812        H  0.49880815  0.09951672  0.52340349     0.39700
H813        H  0.53114937  0.41663625  0.20381781     0.44600
H814        H  0.63738937  0.09327487  0.31996654     0.43300
H815        H  0.96231363  0.07289267  0.55813755     0.43500
H816        H  0.83523698  0.35195711  0.39587099     0.43800
C817        C  0.00478854  0.49186187  0.67971105    -0.05200
C818        C  0.99530204  0.51700204  0.67318130    -0.32600
C819        C  0.99288149  0.51628949  0.62855356     0.36600
C820        C  0.49298461  0.48272641  0.58703176    -0.05600
C821        C  0.51859139  0.47379330  0.59396275    -0.32500
C822        C  0.52126184  0.47503015  0.63881981     0.36500
H823        H  0.98975959  0.53758540  0.70285093     0.16900
O824        O  0.96336748  0.02508968  0.62680716    -0.60000
H825        H  0.53715135  0.46613654  0.56448688     0.16900
O826        O  0.54724464  0.46660660  0.64336121    -0.60100
H827        H  0.53091398  0.43531601  0.63666937     0.43900
H828        H  0.98614260  0.05549976  0.62790713     0.43900
C829        C  0.00768900  0.50091301  0.18289083    -0.05200
C830        C  0.03300043  0.49230851  0.14505212    -0.32600
C831        C  0.03362714  0.49252183  0.09941866     0.36600
C832        C  0.50918296  0.50028646  0.08857579    -0.05600
C833        C  0.48360694  0.00729720  0.12653937    -0.32500
C834        C  0.48303478  0.00779316  0.17238990     0.36500
H835        H  0.05280827  0.48570018  0.15074191     0.16900
O836        O  0.06028089  0.48580224  0.06417754    -0.60000
H837        H  0.46218185  0.01142713  0.11999598     0.16900
O838        O  0.45533267  0.01339869  0.20686837    -0.60100
H839        H  0.42925585  0.98457175  0.20731003     0.43900
H840        H  0.08571624  0.51444511  0.06092738     0.43900
C841        C  0.62128056  0.23582171  0.30007112    -0.05200
C842        C  0.63091950  0.23639088  0.34023095    -0.32600
C843        C  0.61058352  0.19925526  0.35545967     0.36600
C844        C  0.57925093  0.16048053  0.33087652    -0.05600
C845        C  0.56900531  0.15995619  0.29102896    -0.32500
C846        C  0.58987406  0.19734578  0.27552389     0.36500
H847        H  0.65463222  0.26591718  0.35985160     0.16900
O848        O  0.62103083  0.20145184  0.39506229    -0.60000
H849        H  0.54562007  0.13037767  0.27112228     0.16900
O850        O  0.58090349  0.19566866  0.23517732    -0.60100
H851        H  0.55626421  0.19680245  0.24488468     0.43900
H852        H  0.64662097  0.20189937  0.38454770     0.43900
C853        C  0.75936924  0.36803520  0.27140674    -0.05200
C854        C  0.78008897  0.41090894  0.29460476    -0.32600
C855        C  0.82073663  0.43391977  0.30537781     0.36600
C856        C  0.84059672  0.41365721  0.29511761    -0.05600
C857        C  0.82191177  0.37243287  0.26783980    -0.32500
C858        C  0.78209442  0.34992222  0.25502586     0.36500
H859        H  0.76406267  0.42616701  0.30729704     0.16900
O860        O  0.83914680  0.47502180  0.32961446    -0.60000
H861        H  0.83775998  0.35707851  0.25753620     0.16900
O862        O  0.76558591  0.31026632  0.22654996    -0.60100
H863        H  0.76479302  0.29307272  0.24316069     0.43900
H864        H  0.85198378  0.49196900  0.30547836     0.43900
C865        C  0.58803692  0.39750452  0.31173316    -0.05200
C866        C  0.61589262  0.40109137  0.27012929    -0.32600
C867        C  0.63559425  0.38031587  0.25729395     0.36600
C868        C  0.62689895  0.35489320  0.28577390    -0.05600
C869        C  0.59811586  0.35041246  0.32643366    -0.32500
C870        C  0.57862138  0.37099299  0.33927730     0.36500
H871        H  0.62317860  0.42077275  0.24804069     0.16900
O872        O  0.66239040  0.38413993  0.21641638    -0.60000
H873        H  0.59120394  0.33140382  0.34917602     0.16900
O874        O  0.55046810  0.36498961  0.37918870    -0.60100
H875        H  0.52285305  0.34103281  0.36863135     0.43900
H876        H  0.68768010  0.41357678  0.22218300     0.43900
C877        C  0.58454160  0.15580354  0.81869234    -0.05200
C878        C  0.61734155  0.16781020  0.78190655    -0.32600
C879        C  0.63762131  0.20654515  0.76988615     0.36600
C880        C  0.62532274  0.23387033  0.79532022    -0.05600
C881        C  0.59176159  0.22114051  0.83149411    -0.32500
C882        C  0.57117066  0.18220435  0.84296828     0.36500
H883        H  0.62738346  0.14723598  0.76271514     0.16900
O884        O  0.66878015  0.21712889  0.73274309    -0.60000
H885        H  0.58236615  0.24204668  0.85200459     0.16900
O886        O  0.53992719  0.17142389  0.88000447    -0.60100
H887        H  0.51522336  0.16275096  0.86823124     0.43900
H888        H  0.69281183  0.22332354  0.74340506     0.43900
C889        C  0.84225488  0.42085655  0.80613094    -0.05200
C890        C  0.82654459  0.38349009  0.77173552    -0.32600
C891        C  0.78609402  0.36064291  0.76113943     0.36600
C892        C  0.76027148  0.37451843  0.78618235    -0.05600
C893        C  0.77731938  0.41376039  0.81812230    -0.32500
C894        C  0.81830762  0.43716939  0.82779831     0.36500
H895        H  0.84510897  0.37104809  0.75451376     0.16900
O896        O  0.77133145  0.32355324  0.72810442    -0.60000
H897        H  0.75806891  0.42498943  0.83792735     0.16900
O898        O  0.83304967  0.47354920  0.86191525    -0.60100
H899        H  0.84744951  0.49665311  0.84512117     0.43900
H900        H  0.77468590  0.33101535  0.69899041     0.43900
C901        C  0.62560722  0.35379900  0.79476917    -0.05200
C902        C  0.63701855  0.38134557  0.76771929    -0.32600
C903        C  0.61666487  0.40094490  0.77799474     0.36600
C904        C  0.58496978  0.39362098  0.81633820    -0.05600
C905        C  0.57319817  0.36560519  0.84282638    -0.32500
C906        C  0.59323885  0.34589063  0.83248398     0.36500
H907        H  0.66204276  0.38800167  0.73889106     0.16900
O908        O  0.62965924  0.42906738  0.75217497    -0.60000
H909        H  0.54874980  0.35948431  0.87228288     0.16900
O910        O  0.58193640  0.32018385  0.86068474    -0.60100
H911        H  0.60237988  0.33834115  0.88361458     0.43900
H912        H  0.61543256  0.41142832  0.72369363     0.43900
C913        C  0.86701134  0.11941645  0.48194164    -0.05200
C914        C  0.84717446  0.07721547  0.45689552    -0.32600
C915        C  0.86627265  0.05638185  0.44512269     0.36600
C916        C  0.90615179  0.07797366  0.45711540    -0.05600
C917        C  0.92516753  0.11913288  0.48448708    -0.32500
C918        C  0.90585070  0.14005602  0.49692943     0.36500
H919        H  0.81732847  0.06061776  0.44500370     0.16900
O920        O  0.84591595  0.01495263  0.42163119    -0.60000
H921        H  0.95544311  0.13538975  0.49515364     0.16900
O922        O  0.92463626  0.18019993  0.52425207    -0.60100
H923        H  0.95000709  0.19852408  0.50434630     0.43900
H924        H  0.82547417  0.99832884  0.44579470     0.43900
C925        C  0.87929797  0.23939580  0.45666074    -0.05200
C926        C  0.86790175  0.24068424  0.41929947    -0.32600
C927        C  0.88836222  0.27866022  0.40572201     0.36600
C928        C  0.92139405  0.31652768  0.42941544    -0.05600
C929        C  0.93428453  0.31475102  0.46524817    -0.32500
C930        C  0.91348955  0.27652708  0.47891532     0.36500
H931        H  0.84240393  0.21209744  0.40096985     0.16900
O932        O  0.87594213  0.27820348  0.36891087    -0.60000
H933        H  0.95943445  0.34330570  0.48403877     0.16900
O934        O  0.92493551  0.27633767  0.51607492    -0.60100
H935        H  0.95020537  0.27635216  0.50324592     0.43900
H936        H  0.84960675  0.27619322  0.38175600     0.43900
C937        C  0.65654867  0.06743014  0.47526309    -0.05200
C938        C  0.67636327  0.04676178  0.45993314    -0.32600
C939        C  0.71758368  0.06822165  0.46768529     0.36600
C940        C  0.73927359  0.11081201  0.49257597    -0.05600
C941        C  0.71780881  0.12994788  0.51174706    -0.32500
C942        C  0.67701930  0.10881002  0.50296997     0.36500
H943        H  0.66121278  0.01507741  0.43836268     0.16900
O944        O  0.73720512  0.04819875  0.44748497    -0.60000
H945        H  0.73348054  0.16227479  0.53164428     0.16900
O946        O  0.65831169  0.12978574  0.51950556    -0.60100
H947        H  0.64064725  0.12049633  0.54892626     0.43900
H948        H  0.75091694  0.05585372  0.41648588     0.43900
C949        C  0.87433047  0.12645064  0.98052738    -0.05200
C950        C  0.88936108  0.11795674  0.93356172    -0.32600
C951        C  0.90841023  0.09682660  0.91918722     0.36600
C952        C  0.91316866  0.08398342  0.95237166    -0.05600
C953        C  0.89761556  0.09238836  0.99974311    -0.32500
C954        C  0.87787841  0.11308612  0.01377654     0.36500
H955        H  0.88572909  0.12730232  0.90760491     0.16900
O956        O  0.92113876  0.08796339  0.87233753    -0.60000
H957        H  0.90051153  0.08276095  0.02599944     0.16900
O958        O  0.86305592  0.12092434  0.06000241    -0.60100
H959        H  0.83321154  0.09683640  0.06308641     0.43900
H960        H  0.94637421  0.11533954  0.86500612     0.43900
C961        C  0.92018861  0.32358115  0.94582997    -0.05200
C962        C  0.89104896  0.28547171  0.91867489    -0.32600
C963        C  0.87103625  0.24697654  0.93066931     0.36600
C964        C  0.87889604  0.24594026  0.97127535    -0.05600
C965        C  0.90875531  0.28374329  0.99805705    -0.32500
C966        C  0.92943552  0.32250660  0.98559579     0.36500
H967        H  0.88405309  0.28538962  0.88750660     0.16900
O968        O  0.84386281  0.21032337  0.90224749    -0.60000
H969        H  0.91536185  0.28325127  0.02912901     0.16900
O970        O  0.95792547  0.35900834  0.01294477    -0.60100
H971        H  0.94243797  0.37102285  0.03402892     0.43900
H972        H  0.86122367  0.20118741  0.87939620     0.43900
C973        C  0.74290207  0.10997150  0.99055483    -0.05200
C974        C  0.71844682  0.12565551  0.01294211    -0.32600
C975        C  0.67857732  0.10434024  0.00124334     0.36600
C976        C  0.66174111  0.06568458  0.96840551    -0.05600
C977        C  0.68448170  0.04807711  0.94895222    -0.32500
C978        C  0.72518137  0.07028312  0.95892752     0.36500
H979        H  0.73124731  0.15583077  0.03759659     0.16900
O980        O  0.65662920  0.12196531  0.02117516    -0.60000
H981        H  0.67212124  0.01880074  0.92277923     0.16900
O982        O  0.74888514  0.05534707  0.93337376    -0.60100
H983        H  0.73791641  0.03068050  0.94577816     0.43900
H984        H  0.66929963  0.14464898  0.00436125     0.43900
C985        C  0.85204444  0.64704901  0.99230423     0.03400
C986        C  0.80832425  0.62330595  0.00001114    -0.12800
C987        C  0.78752108  0.63961735  0.99806206     0.00900
C988        C  0.81141866  0.68170963  0.99315513    -0.11300
C989        C  0.85522090  0.70617345  0.98701992     0.03400
C990        C  0.87540689  0.68865595  0.98658871    -0.10700
H991        H  0.79076539  0.59101866  0.00369641     0.09000
H992        H  0.79617863  0.69458406  0.99015823     0.06500
H993        H  0.90908611  0.70613547  0.97819204     0.06400
C994        C  0.84626374  0.64195896  0.49039651     0.03400
C995        C  0.80278472  0.62130713  0.50101604    -0.12800
C996        C  0.78355179  0.63780436  0.49539615     0.00900
C997        C  0.80876598  0.67763202  0.48373240    -0.11300
C998        C  0.85243414  0.69989075  0.47557300     0.03400
C999        C  0.87093949  0.68158501  0.47825369    -0.10700
H1000       H  0.78367771  0.59096280  0.51079368     0.09000
H1001       H  0.79437600  0.69057761  0.47869347     0.06500
H1002       H  0.90417485  0.69689186  0.46764671     0.06400
C1003       C  0.65028763  0.83487103  0.78371781     0.03400
C1004       C  0.69407810  0.86067839  0.78043354    -0.12800
C1005       C  0.71574448  0.84412312  0.77874664     0.00900
C1006       C  0.69290771  0.80135944  0.78037155    -0.11300
C1007       C  0.64936594  0.77505539  0.78199989     0.03400
C1008       C  0.62845824  0.79178298  0.78229896    -0.10700
H1009       H  0.71104855  0.89403632  0.78155400     0.09000
H1010       H  0.70870061  0.78919067  0.78366002     0.06500
H1011       H  0.59473356  0.77155277  0.78385826     0.06400
C1012       C  0.65117081  0.83623745  0.27581195     0.03400
C1013       C  0.69506547  0.85936944  0.26756211    -0.12800
C1014       C  0.71552233  0.84244559  0.26936298     0.00900
C1015       C  0.69095744  0.80167661  0.27856808    -0.11300
C1016       C  0.64727542  0.77764055  0.28456689     0.03400
C1017       C  0.62760202  0.79480527  0.28243577    -0.10700
H1018       H  0.71312743  0.89149716  0.26313336     0.09000
H1019       H  0.70558507  0.78919761  0.28401561     0.06500
H1020       H  0.59387941  0.77726855  0.28997360     0.06400
O1021       O  0.62470844  0.57357806  0.92985603    -0.75000
O1022       O  0.59531238  0.00751784  0.94539694    -0.53900
C1023       C  0.62476190  0.54909142  0.94643006     0.78700
O1024       O  0.93895972  0.55319131  0.96807390    -0.59600
O1025       O  0.94553009  0.55361544  0.89208584    -0.52700
C1026       C  0.93337422  0.56185191  0.93583102     0.70700
O1027       O  0.98947439  0.51480762  0.03702834    -0.74200
O1028       O  0.52134025  0.97783725  0.00678916    -0.54800
C1029       C  0.50762990  0.99710009  0.04083228     0.76700
O1030       O  0.58774046  0.61426346  0.84703825    -0.59300
O1031       O  0.52478254  0.58643962  0.82706865    -0.52500
C1032       C  0.56379416  0.61542959  0.83002835     0.73300
Zr1033     Zr  0.58094682  0.56821240  0.88626443     2.54700
O1034       O  0.61004244  0.63651121  0.94066384    -0.79900
O1035       O  0.64723885  0.59261835  0.83559115    -0.93300
Zr1036     Zr  0.97270736  0.52296146  0.97369104     2.64700
O1037       O  0.50959428  0.59405977  0.02398848    -0.98300
O1038       O  0.90672974  0.99058825  0.02373820    -0.80300
O1039       O  0.54010101  0.53341564  0.94939328    -0.83700
O1040       O  0.51641886  0.56062057  0.91054307    -2.18400
O1041       O  0.51912516  0.97265912  0.73222498    -0.67100
O1042       O  0.99011716  0.51002881  0.76213873    -0.51600
C1043       C  0.00432490  0.99187771  0.72850215     0.71700
O1044       O  0.91977545  0.86508108  0.91147632    -0.60000
O1045       O  0.97975057  0.89520243  0.94002497    -0.52000
C1046       C  0.94221130  0.86416635  0.93152053     0.73500
O1047       O  0.88022820  0.91081940  0.83890694    -0.71400
O1048       O  0.91030534  0.97497448  0.82360383    -0.50100
C1049       C  0.88035126  0.93587369  0.82313122     0.74900
O1050       O  0.56041189  0.92441261  0.79857415    -0.66700
O1051       O  0.55587193  0.92532098  0.87474780    -0.53900
C1052       C  0.56594706  0.91558012  0.83054188     0.73300
Zr1053     Zr  0.53158818  0.95971619  0.79509257     2.77500
O1054       O  0.00260128  0.89549028  0.73924164    -0.97500
O1055       O  0.59874554  0.99139775  0.74613372    -0.78300
Zr1056     Zr  0.92462403  0.91430135  0.87975520     2.70100
O1057       O  0.89309781  0.84654999  0.82431067    -0.79500
O1058       O  0.85981798  0.88927249  0.93323590    -0.98600
Zr1059     Zr  0.52595712  0.96363818  0.92262998     2.21500
Zr1060     Zr  0.97972703  0.51945713  0.84629531     2.11100
O1061       O  0.96639272  0.95067513  0.81793332    -2.47300
O1062       O  0.99004189  0.92372990  0.85643788    -0.79300
O1063       O  0.54388912  0.52722748  0.82036420    -0.71500
O1064       O  0.95990514  0.95455828  0.94709772    -2.32500
O1065       O  0.56820025  0.50046170  0.85957052    -2.28700
O1066       O  0.93586971  0.98139673  0.90819063    -0.73300
H1067       H  0.52124108  0.58798250  0.91900644     0.78700
H1068       H  0.94436463  0.93932170  0.97213517     0.79800
H1069       H  0.95169494  0.93553369  0.79080143     0.82000
H1070       H  0.59434126  0.50332067  0.85186505     0.79600
H1071       H  0.90493112  0.96953173  0.03446181     0.42700
H1072       H  0.85125424  0.90730181  0.93449718     0.41600
H1073       H  0.91104281  0.83709722  0.82005734     0.41300
H1074       H  0.97654128  0.88919689  0.73396932     0.39300
H1075       H  0.60462534  0.51813156  0.74629711     0.42400
H1076       H  0.65544551  0.57482346  0.83622945     0.37200
H1077       H  0.59654156  0.62949013  0.97190676     0.43300
H1078       H  0.52220663  0.61417078  0.00365390     0.39700
H1079       H  0.52182133  0.89917842  0.70946827     0.44600
H1080       H  0.66736825  0.62103467  0.85313638     0.43300
H1081       H  0.98130892  0.58973307  0.05140812     0.43500
H1082       H  0.83918053  0.86103747  0.91587957     0.43800
O1083       O  0.61620351  0.57482069  0.44316004    -0.75000
O1084       O  0.59028020  0.00840674  0.45045506    -0.53900
C1085       C  0.61763160  0.54938717  0.45602036     0.77700
O1086       O  0.93180748  0.54736955  0.47314830    -0.59600
O1087       O  0.93566871  0.54774557  0.39760644    -0.52700
C1088       C  0.92492487  0.55577000  0.44198196     0.70700
O1089       O  0.97943048  0.50353785  0.53670350    -0.74200
O1090       O  0.51097773  0.96907935  0.50621143    -0.54800
C1091       C  0.49525576  0.98613958  0.54069774     0.76700
O1092       O  0.58025044  0.61904782  0.36410184    -0.59300
O1093       O  0.52111784  0.59041843  0.33482384    -0.52500
C1094       C  0.55860697  0.62095743  0.34400084     0.73300
Zr1095     Zr  0.57397471  0.57055871  0.39855476     2.54700
O1096       O  0.59066710  0.63231145  0.46175823    -0.79900
O1097       O  0.64505185  0.60743857  0.35848291    -0.93300
Zr1098     Zr  0.96254779  0.51321762  0.47492207     2.64700
O1099       O  0.48752327  0.57421153  0.53608040    -0.98300
O1100       O  0.89637242  0.97476349  0.51778692    -0.80300
O1101       O  0.53059850  0.52782264  0.45451953    -0.83700
O1102       O  0.50678366  0.55652857  0.41745002    -2.18400
O1103       O  0.52608603  0.98427272  0.23475067    -0.67100
O1104       O  0.98764478  0.51249292  0.26529463    -0.51600
C1105       C  0.00817069  0.99925887  0.23017360     0.71700
O1106       O  0.91995065  0.86059724  0.39896823    -0.60000
O1107       O  0.97658941  0.89069467  0.43404604    -0.52000
C1108       C  0.94077558  0.85890745  0.42063420     0.73500
O1109       O  0.88056198  0.90821323  0.33037289    -0.71400
O1110       O  0.90902971  0.97326119  0.31917737    -0.50100
C1111       C  0.88014144  0.93336916  0.31549543     0.74900
O1112       O  0.56468963  0.93177981  0.29833629    -0.66700
O1113       O  0.55720010  0.92907813  0.37372134    -0.53900
C1114       C  0.56904788  0.92116953  0.32969970     0.73300
Zr1115     Zr  0.53449397  0.96701414  0.29693037     2.77500
O1116       O  0.01018498  0.90358315  0.23634863    -0.97500
O1117       O  0.60355784  0.00384880  0.25266522    -0.78300
Zr1118     Zr  0.92417849  0.91231019  0.37297491     2.70100
O1119       O  0.89653954  0.84787040  0.31244474    -0.79500
O1120       O  0.85718460  0.88285606  0.42248693    -0.98600
Zr1121     Zr  0.52211407  0.96198445  0.42246743     2.21500
Zr1122     Zr  0.97403661  0.51795569  0.34905550     2.11100
O1123       O  0.96807230  0.95334335  0.31544616    -2.47300
O1124       O  0.99105843  0.92513976  0.35329501    -0.79300
O1125       O  0.54381513  0.53429935  0.32779752    -0.71500
O1126       O  0.95502815  0.94885501  0.44343354    -2.32500
O1127       O  0.56830651  0.50621862  0.36494262    -2.28700
O1128       O  0.93148200  0.97742244  0.40547883    -0.73300
H1129       H  0.50956191  0.58298999  0.42900487     0.78700
H1130       H  0.93862845  0.93176638  0.46676827     0.79800
H1131       H  0.95496502  0.93916591  0.28718764     0.82000
H1132       H  0.59545077  0.51139971  0.35910460     0.79600
H1133       H  0.87651303  0.96475341  0.49681055     0.42700
H1134       H  0.86397479  0.88978958  0.45406063     0.41600
H1135       H  0.92013330  0.84516290  0.29920637     0.41300
H1136       H  0.98591082  0.89821924  0.22741005     0.39300
H1137       H  0.60473377  0.49526016  0.22236057     0.42400
H1138       H  0.65202551  0.58662799  0.34780926     0.37200
H1139       H  0.62062020  0.65398969  0.45349155     0.43300
H1140       H  0.50149410  0.59829866  0.52110905     0.39700
H1141       H  0.53039975  0.90921122  0.21052111     0.44600
H1142       H  0.66271616  0.62895678  0.38359668     0.43300
H1143       H  0.95692742  0.56985907  0.55813539     0.43500
H1144       H  0.84839540  0.90100355  0.42499184     0.43800
C1145       C  0.00294821  0.99112659  0.68041800    -0.05200
C1146       C  0.98395867  0.00790352  0.67456355    -0.32600
C1147       C  0.98188949  0.00781166  0.63007519     0.36600
C1148       C  0.49725275  0.98749613  0.58871548    -0.05600
C1149       C  0.50441798  0.96059345  0.59538919    -0.32500
C1150       C  0.50690901  0.96129568  0.64002335     0.36500
H1151       H  0.97063391  0.02147952  0.70465570     0.16900
O1152       O  0.98390820  0.54184808  0.62441578    -0.60000
H1153       H  0.50781582  0.93849431  0.56587062     0.16900
O1154       O  0.51375275  0.93415646  0.64437757    -0.60100
H1155       H  0.48555142  0.90796643  0.64905647     0.43900
H1156       H  0.01144764  0.56832288  0.61858951     0.43900
C1157       C  0.00852191  0.00034244  0.18221569    -0.05200
C1158       C  0.03380219  0.99173253  0.14442079    -0.32600
C1159       C  0.03401751  0.99139624  0.09874050     0.36600
C1160       C  0.51007282  0.00005514  0.08937050    -0.05600
C1161       C  0.48163084  0.50585374  0.12551021    -0.32500
C1162       C  0.48147599  0.50669391  0.17131432     0.36500
H1163       H  0.05378501  0.98536509  0.15016074     0.16900
O1164       O  0.05991907  0.98362234  0.06336188    -0.60000
H1165       H  0.45910501  0.50839258  0.11877854     0.16900
O1166       O  0.45268680  0.51052355  0.20564736    -0.60100
H1167       H  0.42722225  0.48122177  0.20513820     0.43900
H1168       H  0.08586502  0.01192272  0.05986060     0.43900
C1169       C  0.62266951  0.73736261  0.30012009    -0.05200
C1170       C  0.63256171  0.73702793  0.33945219    -0.32600
C1171       C  0.61126678  0.69961137  0.35459184     0.36600
C1172       C  0.57911171  0.66132335  0.33036870    -0.05600
C1173       C  0.56826278  0.66184435  0.29173277    -0.32500
C1174       C  0.58971670  0.69961886  0.27668920     0.36500
H1175       H  0.65704843  0.76607685  0.35865803     0.16900
O1176       O  0.62143170  0.70109714  0.39397320    -0.60000
H1177       H  0.54389593  0.63279378  0.27240881     0.16900
O1178       O  0.57969516  0.69899483  0.23779147    -0.60100
H1179       H  0.55446021  0.69914379  0.24887684     0.43900
H1180       H  0.64778467  0.70296313  0.38373246     0.43900
C1181       C  0.76173518  0.86904873  0.27005559    -0.05200
C1182       C  0.78244962  0.91179197  0.29366263    -0.32600
C1183       C  0.82307705  0.93464977  0.30432131     0.36600
C1184       C  0.84289204  0.91432468  0.29381068    -0.05600
C1185       C  0.82416634  0.87315254  0.26623375    -0.32500
C1186       C  0.78444080  0.85092488  0.25317385     0.36500
H1187       H  0.76642665  0.92706318  0.30667533     0.16900
O1188       O  0.84154110  0.97571658  0.32864661    -0.60000
H1189       H  0.83997356  0.85773813  0.25571165     0.16900
O1190       O  0.76807248  0.81168407  0.22377924    -0.60100
H1191       H  0.76674326  0.79381193  0.23984910     0.43900
H1192       H  0.85769398  0.99295869  0.30438848     0.43900
C1193       C  0.58914011  0.89828451  0.31450997    -0.05200
C1194       C  0.61419315  0.89951861  0.27085189    -0.32600
C1195       C  0.63487791  0.87967302  0.25741569     0.36600
C1196       C  0.62998133  0.85748967  0.28734224    -0.05600
C1197       C  0.60451448  0.85572820  0.33037769    -0.32500
C1198       C  0.58402671  0.87536969  0.34389029     0.36500
H1199       H  0.61837950  0.91648329  0.24738053     0.16900
O1200       O  0.65878102  0.88113028  0.21461461    -0.60000
H1201       H  0.60066350  0.83915021  0.35411596     0.16900
O1202       O  0.55905730  0.87181855  0.38614118    -0.60100
H1203       H  0.53101947  0.84576989  0.37924793     0.43900
H1204       H  0.68561387  0.90949480  0.21874845     0.43900
C1205       C  0.58255612  0.65380135  0.81433891    -0.05200
C1206       C  0.61460711  0.66463595  0.77670109    -0.32600
C1207       C  0.63584375  0.70351490  0.76449849     0.36600
C1208       C  0.62520469  0.73206971  0.79060633    -0.05600
C1209       C  0.59240997  0.72049189  0.82769721    -0.32500
C1210       C  0.57087722  0.68146882  0.83932937     0.36500
H1211       H  0.62344433  0.64312096  0.75713807     0.16900
O1212       O  0.66624207  0.71302291  0.72657835    -0.60000
H1213       H  0.58431806  0.74234159  0.84877224     0.16900
O1214       O  0.54041855  0.67178564  0.87716727    -0.60100
H1215       H  0.51604626  0.66493575  0.86659634     0.43900
H1216       H  0.68998783  0.71779764  0.73615567     0.43900
C1217       C  0.84254904  0.91796305  0.80424367    -0.05200
C1218       C  0.82713196  0.88063981  0.76968507    -0.32600
C1219       C  0.78713544  0.85826696  0.75778179     0.36600
C1220       C  0.76125013  0.87220699  0.78217747    -0.05600
C1221       C  0.77812488  0.91134271  0.81433300    -0.32500
C1222       C  0.81879169  0.93452414  0.82483616     0.36500
H1223       H  0.84565941  0.86810638  0.75302584     0.16900
O1224       O  0.77293825  0.82176606  0.72385781    -0.60000
H1225       H  0.75898720  0.92277936  0.83369122     0.16900
O1226       O  0.83339023  0.97103317  0.85876495    -0.60100
H1227       H  0.84593492  0.99376781  0.84210554     0.43900
H1228       H  0.77887488  0.83044065  0.69456911     0.43900
C1229       C  0.62700551  0.85361122  0.79368528    -0.05200
C1230       C  0.63892414  0.88211482  0.76770896    -0.32600
C1231       C  0.61824966  0.90138969  0.77810844     0.36600
C1232       C  0.58577928  0.89296876  0.81571533    -0.05600
C1233       C  0.57350323  0.86405017  0.84118806    -0.32500
C1234       C  0.59383313  0.84455129  0.83063141     0.36500
H1235       H  0.66441076  0.88954449  0.73936070     0.16900
O1236       O  0.63146439  0.93002044  0.75290722    -0.60000
H1237       H  0.54841058  0.85700739  0.86999873     0.16900
O1238       O  0.58187618  0.81773732  0.85771767    -0.60100
H1239       H  0.59656603  0.83634104  0.88577050     0.43900
H1240       H  0.61715134  0.91277948  0.72445120     0.43900
C1241       C  0.86473952  0.61887952  0.48385283    -0.05200
C1242       C  0.84455542  0.57662001  0.45882144    -0.32600
C1243       C  0.86334405  0.55536212  0.44664739     0.36600
C1244       C  0.90319593  0.57640573  0.45852235    -0.05600
C1245       C  0.92252412  0.61762585  0.48583840    -0.32500
C1246       C  0.90360550  0.63902894  0.49848605     0.36500
H1247       H  0.81468839  0.56032267  0.44715404     0.16900
O1248       O  0.84265854  0.51405216  0.42282766    -0.60000
H1249       H  0.95280476  0.63361036  0.49631211     0.16900
O1250       O  0.92279194  0.67916601  0.52579968    -0.60100
H1251       H  0.94841875  0.69727770  0.50597538     0.43900
H1252       H  0.82527713  0.49711976  0.44734386     0.43900
C1253       C  0.87798330  0.74014793  0.45944178    -0.05200
C1254       C  0.86730839  0.74155444  0.42151385    -0.32600
C1255       C  0.88848142  0.77953456  0.40744766     0.36600
C1256       C  0.92106847  0.81748990  0.43169066    -0.05600
C1257       C  0.93296034  0.81566167  0.46844386    -0.32500
C1258       C  0.91191940  0.77731353  0.48207938     0.36500
H1259       H  0.84209992  0.71297031  0.40279246     0.16900
O1260       O  0.87745987  0.77891797  0.36932790    -0.60000
H1261       H  0.95781648  0.84419938  0.48762790     0.16900
O1262       O  0.92321635  0.77694324  0.51922553    -0.60100
H1263       H  0.94772647  0.77565590  0.50609267     0.43900
H1264       H  0.85130704  0.77738374  0.38088451     0.43900
C1265       C  0.65535036  0.56815241  0.47627563    -0.05200
C1266       C  0.67532951  0.54768927  0.46086367    -0.32600
C1267       C  0.71635783  0.56915759  0.46908424     0.36600
C1268       C  0.73761025  0.61146249  0.49477632    -0.05600
C1269       C  0.71587172  0.63034075  0.51413935    -0.32500
C1270       C  0.67523791  0.60919275  0.50476218     0.36500
H1271       H  0.66056563  0.51625418  0.43869957     0.16900
O1272       O  0.73637185  0.54957460  0.44833070    -0.60000
H1273       H  0.73125650  0.66248155  0.53454721     0.16900
O1274       O  0.65617979  0.62983650  0.52142221    -0.60100
H1275       H  0.63662887  0.61846784  0.54920718     0.43900
H1276       H  0.74832377  0.55596164  0.41663928     0.43900
C1277       C  0.87255282  0.62532776  0.97906303    -0.05200
C1278       C  0.88518936  0.61473387  0.93159711    -0.32600
C1279       C  0.90485104  0.59409139  0.91686107     0.36600
C1280       C  0.91180512  0.58314770  0.95011446    -0.05600
C1281       C  0.89839113  0.59347251  0.99784813    -0.32500
C1282       C  0.87879580  0.61429753  0.01231514     0.36500
H1283       H  0.87980315  0.62263092  0.90571893     0.16900
O1284       O  0.91646493  0.58430465  0.86981567    -0.60000
H1285       H  0.90328770  0.58568372  0.02422980     0.16900
O1286       O  0.86703786  0.62487849  0.05904043    -0.60100
H1287       H  0.83751653  0.60100307  0.06509518     0.43900
H1288       H  0.94036423  0.61166691  0.86113753     0.43900
C1289       C  0.92268328  0.82411463  0.94523689    -0.05200
C1290       C  0.89256868  0.78610946  0.91887328    -0.32600
C1291       C  0.87142688  0.74775342  0.93178915     0.36600
C1292       C  0.87930478  0.74675692  0.97239734    -0.05600
C1293       C  0.91035898  0.78434259  0.99812370    -0.32500
C1294       C  0.93205583  0.82296707  0.98480984     0.36500
H1295       H  0.88544646  0.78604297  0.88780855     0.16900
O1296       O  0.84309047  0.71122939  0.90429463    -0.60000
H1297       H  0.91714772  0.78381793  0.02903374     0.16900
O1298       O  0.96155034  0.85932022  0.01124845    -0.60100
H1299       H  0.94665853  0.87161435  0.03347622     0.43900
H1300       H  0.85796259  0.69798850  0.88538289     0.43900
C1301       C  0.74214488  0.61166612  0.99293045    -0.05200
C1302       C  0.71810064  0.62804912  0.01283999    -0.32600
C1303       C  0.67885823  0.60695470  0.99943895     0.36600
C1304       C  0.66222121  0.56800607  0.96708628    -0.05600
C1305       C  0.68422940  0.54962049  0.95037042    -0.32500
C1306       C  0.72410333  0.57123288  0.96251632     0.36500
H1307       H  0.73070651  0.65846980  0.03701030     0.16900
O1308       O  0.65715803  0.62489088  0.01762648    -0.60000
H1309       H  0.67183301  0.51980836  0.92506419     0.16900
O1310       O  0.74665918  0.55446852  0.94045540    -0.60100
H1311       H  0.73438815  0.53086042  0.95556969     0.43900
H1312       H  0.66928494  0.64600380  0.99872911     0.43900
loop_ 
_geom_bond_atom_site_label_1 
_geom_bond_atom_site_label_2 
_geom_bond_distance 
_geom_bond_site_symmetry_2 
_ccdc_geom_bond_type 
C1            C2   1.403       .  A
C1            C6   1.401       .  A
C1          C293   1.470       .  S
C2            C3   1.406       .  A
C2            H7   1.083       .  S
C3            C4   1.406       .  A
C3          C317   1.490       .  S
C4            C5   1.402       .  A
C4            H8   1.084       .  S
C5            C6   1.398       .  A
C5          C308   1.475       .  S
C6            H9   1.084       .  S
C10          C11   1.404       .  A
C10          C15   1.405       .  A
C10         C257   1.484       .  S
C11          C12   1.403       .  A
C11          H16   1.083       .  S
C12          C13   1.407       .  A
C12         C284   1.491       .  S
C13          C14   1.406       .  A
C13          H17   1.084       .  S
C14          C15   1.402       .  A
C14         C269   1.484       .  S
C15          H18   1.083       .  S
C19          C20   1.404       .  A
C19          C24   1.401       .  A
C19         C245   1.477       .  S
C20          C21   1.405       .  A
C20          H25   1.083       .  S
C21          C22   1.404       .  A
C21         C236   1.484       .  S
C22          C23   1.399       .  A
C22          H26   1.083       .  S
C23          C24   1.399       .  A
C23         C224   1.477       .  S
C24          H27   1.084       .  S
C28          C29   1.408       .  A
C28          C33   1.405       .  A
C28         C212   1.486       .  S
C29          C30   1.411       .  A
C29          H34   1.081       .  S
C30          C31   1.406       .  A
C30         C197   1.496       .  S
C31          C32   1.400       .  A
C31          H35   1.081       .  S
C32          C33   1.396       .  A
C32         C185   1.479       .  S
C33          H36   1.084       .  S
O37         Zr49   2.433       .  S
O37          C39   1.286       .  A
O38         Zr75   2.424       .  S
O38         C367   1.286       .  A
C39         C320   1.470       .  S
C39         O366   1.286       .  A
O40         Zr52   2.448       .  S
O40          C42   1.289       .  A
O41         Zr76   2.406       .  S
O41          C42   1.283       .  A
C42         C296   1.489       .  S
O43         Zr52   2.444   1_554  S
O43        C1029   1.289   1_545  A
O44         Zr75   2.412   1_554  S
O44          C45   1.284       .  A
C45         C176   1.486       .  S
C45        O1027   1.290   1_455  A
O46         Zr49   2.432       .  S
O46          C48   1.286       .  A
O47        Zr732   2.413   1_455  S
O47          C48   1.284       .  A
C48         C221   1.459       .  S
Zr49         O50   2.434       .  S
Zr49         O51   2.437       .  S
Zr49         O55   2.366       .  S
Zr49         O56   2.369       .  S
Zr49         O79   2.369       .  S
Zr49         O81   2.370       .  S
O50          H93   0.990       .  S
O51          H92   0.990       .  S
O51          H96   0.990       .  S
Zr52        O709   2.435   1_556  S
Zr52        O382   2.434   1_546  S
Zr52        O712   2.373       .  S
Zr52        O711   2.366       .  S
Zr52        O408   2.375   1_545  S
Zr52        O410   2.377   1_545  S
O53        Zr708   2.437   1_454  S
O53          H94   0.990       .  S
O53         H753   0.990   1_455  S
O54        Zr380   2.434   1_554  S
O54          H87   0.990       .  S
O55        Zr708   2.369   1_455  S
O55        Zr403   2.377   1_545  S
O56        Zr708   2.373   1_455  S
O56        Zr732   2.380   1_455  S
O56          H83   0.965       .  S
O57         Zr69   2.440       .  S
O57         C715   1.287       .  A
O58         Zr76   2.416       .  S
O58         C387   1.286   1_545  A
C59         C161   1.491       .  S
C59         O713   1.288       .  A
C59         O386   1.287       .  A
O60         Zr72   2.438       .  S
O60          C62   1.288       .  A
O61        Zr731   2.426       .  S
O61          C62   1.286       .  A
C62         C305   1.479       .  S
O63         Zr72   2.434       .  S
O63          C65   1.287       .  A
O64        Zr404   2.411       .  S
O64          C65   1.283       .  A
C65         C233   1.461       .  S
O66         Zr69   2.430       .  S
O66          C68   1.286       .  A
O67         Zr75   2.418       .  S
O67          C68   1.287       .  A
C68         C248   1.475       .  S
Zr69         O71   2.434       .  S
Zr69        O726   2.437   1_455  S
Zr69        O733   2.364   1_455  S
Zr69        O734   2.374   1_455  S
Zr69        O409   2.374       .  S
Zr69        O407   2.370       .  S
O70        Zr725   2.436       .  S
O70          H90   0.990       .  S
O70         H751   0.990       .  S
O71         H419   0.990       .  S
Zr72         O73   2.433       .  S
Zr72         O74   2.435       .  S
Zr72         O78   2.371       .  S
Zr72         O77   2.368       .  S
Zr72         O82   2.371       .  S
Zr72         O80   2.369       .  S
O73          H89   0.990       .  S
O74          H88   0.990       .  S
O74          H98   0.990       .  S
Zr75        O717   2.423   1_455  S
Zr75        O383   2.375       .  S
Zr75        O734   2.379   1_455  S
Zr75        O736   2.383   1_455  S
Zr75        O409   2.383       .  S
Zr76        O703   2.413       .  S
Zr76        O392   2.419   1_545  S
Zr76        O712   2.383       .  S
Zr76        O405   2.379   1_545  S
Zr76        O735   2.378       .  S
Zr76        O410   2.380   1_545  S
O77        Zr725   2.365       .  S
O77        Zr404   2.380       .  S
O77          H85   0.966       .  S
O78        Zr725   2.378       .  S
O78        Zr731   2.382       .  S
O79        Zr397   2.369   1_545  S
O79        Zr732   2.377   1_455  S
O80        Zr380   2.376       .  S
O80        Zr731   2.386       .  S
O80          H84   0.966       .  S
O81        Zr397   2.372   1_545  S
O81        Zr403   2.383   1_545  S
O81          H86   0.966       .  S
O82        Zr380   2.374       .  S
O82        Zr404   2.381       .  S
H91         O399   0.990   1_545  S
H95         O726   0.990   1_455  S
H97         O709   0.990       .  S
O99        Zr111   2.435       .  S
O99         C101   1.287       .  A
O100       Zr137   2.431       .  S
O100        C429   1.288       .  A
C101        C281   1.475       .  S
C101        O428   1.288       .  A
O102       Zr114   2.434       .  S
O102        C104   1.285       .  A
O103       Zr138   2.433       .  S
O103        C104   1.288       .  A
C104        C260   1.468       .  S
O105       Zr114   2.444       .  S
O105       C1091   1.289   1_545  A
O106       Zr137   2.410       .  S
O106        C107   1.285   1_455  A
C107        C164   1.486       .  S
C107       O1089   1.289       .  A
O108       Zr111   2.435       .  S
O108        C110   1.287       .  A
O109       Zr794   2.425   1_455  S
O109        C110   1.287       .  A
C110        C188   1.482       .  S
Zr111       O112   2.434       .  S
Zr111       O113   2.433       .  S
Zr111       O117   2.362       .  S
Zr111       O118   2.367       .  S
Zr111       O141   2.369       .  S
Zr111       O143   2.372       .  S
O112        H155   0.990       .  S
O113        H154   0.990       .  S
O113        H158   0.990       .  S
Zr114       O771   2.437       .  S
Zr114       O444   2.433   1_545  S
Zr114       O774   2.374       .  S
Zr114       O773   2.364       .  S
Zr114       O470   2.370   1_545  S
Zr114       O472   2.378   1_545  S
O115       Zr770   2.438       .  S
O115        H156   0.990       .  S
O115        H815   0.990       .  S
O116       Zr442   2.434       .  S
O116        H149   0.990       .  S
O117       Zr770   2.361   1_455  S
O117       Zr465   2.376   1_545  S
O118       Zr770   2.374   1_455  S
O118       Zr794   2.388   1_455  S
O118        H145   0.965       .  S
O119       Zr131   2.448       .  S
O119        C777   1.290       .  A
O120       Zr138   2.419       .  S
O120        C449   1.286       .  A
C121        C173   1.486       .  S
C121        O775   1.290       .  A
C121        O448   1.286       .  A
O122       Zr134   2.428       .  S
O122        C124   1.286       .  A
O123       Zr793   2.429       .  S
O123        C124   1.288       .  A
C124        C272   1.486       .  S
O125       Zr134   2.439       .  S
O125        C127   1.288       .  A
O126       Zr466   2.429       .  S
O126        C127   1.287       .  A
C127        C200   1.478       .  S
O128       Zr131   2.452       .  S
O128        C130   1.290       .  A
O129       Zr137   2.411       .  S
O129        C130   1.285       .  A
C130        C209   1.484       .  S
Zr131       O133   2.434       .  S
Zr131       O788   2.436       .  S
Zr131       O795   2.374   1_455  S
Zr131       O796   2.374   1_455  S
Zr131       O471   2.371       .  S
Zr131       O469   2.372       .  S
O132       Zr787   2.437       .  S
O132        H152   0.990       .  S
O132        H813   0.990       .  S
O133        H481   0.990       .  S
Zr134       O135   2.434       .  S
Zr134       O136   2.434       .  S
Zr134       O140   2.367       .  S
Zr134       O139   2.362       .  S
Zr134       O144   2.371       .  S
Zr134       O142   2.372       .  S
O135        H151   0.990       .  S
O136        H150   0.990       .  S
O136        H160   0.990       .  S
Zr137       O779   2.433   1_455  S
Zr137       O445   2.375       .  S
Zr137       O796   2.381   1_455  S
Zr137       O798   2.388   1_455  S
Zr137       O471   2.384       .  S
Zr138       O765   2.421       .  S
Zr138       O454   2.431   1_545  S
Zr138       O774   2.387       .  S
Zr138       O467   2.383   1_545  S
Zr138       O797   2.383       .  S
Zr138       O472   2.378   1_545  S
O139       Zr787   2.373       .  S
O139       Zr466   2.384       .  S
O139        H147   0.966       .  S
O140       Zr787   2.371       .  S
O140       Zr793   2.378       .  S
O141       Zr459   2.372   1_545  S
O141       Zr794   2.383   1_455  S
O142       Zr442   2.367       .  S
O142       Zr793   2.383       .  S
O142        H146   0.966       .  S
O143       Zr459   2.375   1_545  S
O143       Zr465   2.386   1_545  S
O143        H148   0.967       .  S
O144       Zr442   2.378       .  S
O144       Zr466   2.380       .  S
H153        O461   0.990   1_565  S
H157        O788   0.990       .  S
H159        O771   0.990       .  S
C161        C162   1.407       .  A
C161        C822   1.413       .  A
C162        C163   1.401       .  A
C162        H167   1.083       .  S
C163        C820   1.414       .  A
C163        O496   1.372       .  S
C164        C165   1.406   1_655  A
C164        C819   1.412       .  A
C165        C166   1.399       .  A
C165        H169   1.083       .  S
C166        C817   1.414       .  A
C166        O170   1.372       .  S
O168        C491   1.372       .  S
O168        H172   0.992       .  S
O170        H171   0.992   1_455  S
C173        C174   1.407       .  A
C173       C1162   1.414       .  A
C174        C175   1.400       .  A
C174        H179   1.083       .  S
C175        C832   1.412       .  A
C175        O180   1.372       .  S
C176        C831   1.413       .  A
C176        C505   1.404   1_455  A
C177        C178   1.398       .  A
C177        C504   1.404   1_645  A
C177        H181   1.084       .  S
C178       C1157   1.415   1_655  A
C178        O182   1.372       .  S
O180        H184   0.992       .  S
O182        H183   0.992   1_545  S
C185        C186   1.402       .  A
C185        C190   1.407       .  A
C186        C187   1.394       .  A
C186        H191   1.084       .  S
C187        C188   1.412       .  A
C187        O192   1.372       .  S
C188        C189   1.408       .  A
C189        C190   1.404       .  A
C189        H193   1.083       .  S
C190        O194   1.372       .  S
O192        H196   0.992       .  S
O194        H195   0.992       .  S
C197        C198   1.409       .  A
C197        C202   1.415       .  A
C198        C199   1.400       .  A
C198        H203   1.082       .  S
C199        C200   1.406       .  A
C199        O204   1.369       .  S
C200        C201   1.402       .  A
C201        C202   1.401       .  A
C201        H205   1.084       .  S
C202        O206   1.375       .  S
O204        H208   0.992       .  S
O206        H207   0.993       .  S
C209        C210   1.408       .  A
C209        C214   1.411       .  A
C210        C211   1.406       .  A
C210        H215   1.083       .  S
C211        C212   1.409       .  A
C211        O216   1.372       .  S
C212        C213   1.404       .  A
C213        C214   1.393       .  A
C213        H217   1.084       .  S
C214        O218   1.372       .  S
O216        H220   0.992       .  S
O218        H219   0.992       .  S
C221        C222   1.400       .  A
C221        C226   1.403       .  A
C222        C223   1.399       .  A
C222        H227   1.084       .  S
C223        C224   1.409       .  A
C223        O228   1.373       .  S
C224        C225   1.405       .  A
C225        C226   1.397       .  A
C225        H229   1.084       .  S
C226        O230   1.373       .  S
O228        H232   0.992       .  S
O230        H231   0.991       .  S
C233        C234   1.399       .  A
C233        C238   1.404       .  A
C234        C235   1.395       .  A
C234        H239   1.084       .  S
C235        C236   1.412       .  A
C235        O240   1.372       .  S
C236        C237   1.408       .  A
C237        C238   1.399       .  A
C237        H241   1.083       .  S
C238        O242   1.372       .  S
O240        H244   0.991       .  S
O242        H243   0.992       .  S
C245        C246   1.402       .  A
C245        C250   1.411       .  A
C246        C247   1.400       .  A
C246        H251   1.084       .  S
C247        C248   1.412       .  A
C247        O252   1.372       .  S
C248        C249   1.402       .  A
C249        C250   1.394       .  A
C249        H253   1.084       .  S
C250        O254   1.372       .  S
O252        H256   0.992       .  S
O254        H255   0.992       .  S
C257        C258   1.407       .  A
C257        C262   1.410       .  A
C258        C259   1.395       .  A
C258        H263   1.083       .  S
C259        C260   1.402       .  A
C259        O264   1.369       .  S
C260        C261   1.402       .  A
C261        C262   1.404       .  A
C261        H265   1.084       .  S
C262        O266   1.372       .  S
O264        H268   0.992   1_545  S
O266        H267   0.992       .  S
C269        C270   1.401       .  A
C269        C274   1.409       .  A
C270        C271   1.397       .  A
C270        H275   1.084       .  S
C271        C272   1.415       .  A
C271        O276   1.373       .  S
C272        C273   1.407       .  A
C273        C274   1.403       .  A
C273        H277   1.083       .  S
C274        O278   1.372       .  S
O276        H280   0.992       .  S
O278        H279   0.992       .  S
C281        C282   1.399       .  A
C281        C286   1.409       .  A
C282        C283   1.399       .  A
C282        H287   1.084       .  S
C283        C284   1.417       .  A
C283        O288   1.371       .  S
C284        C285   1.406       .  A
C285        C286   1.400       .  A
C285        H289   1.083       .  S
C286        O290   1.372       .  S
O288        H292   0.992       .  S
O290        H291   0.992       .  S
C293        C294   1.398       .  A
C293        C298   1.402   1_556  A
C294        C295   1.395       .  A
C294        H299   1.084       .  S
C295        C296   1.417       .  A
C295        O300   1.372       .  S
C296        C297   1.411       .  A
C297        C298   1.402   1_556  A
C297        H301   1.083   1_556  S
C298        O302   1.371       .  S
O300        H304   0.991       .  S
O302        H303   0.992       .  S
C305        C306   1.403       .  A
C305        C310   1.413       .  A
C306        C307   1.393       .  A
C306        H311   1.084       .  S
C307        C308   1.407       .  A
C307        O312   1.372       .  S
C308        C309   1.403   1_556  A
C309        C310   1.405   1_554  A
C309        H313   1.084       .  S
C310        O314   1.372   1_556  S
O312        H316   0.992       .  S
O314        H315   0.992       .  S
C317        C318   1.407   1_556  A
C317        C322   1.415       .  A
C318        C319   1.399       .  A
C318        H323   1.084       .  S
C319        C320   1.406   1_554  A
C319        O324   1.373       .  S
C320        C321   1.400       .  A
C321        C322   1.401       .  A
C321        H325   1.084       .  S
C322        O326   1.372       .  S
O324        H328   0.992       .  S
O326        H327   0.992       .  S
C329        C330   1.403       .  A
C329        C334   1.402       .  A
C329        C621   1.471       .  S
C330        C331   1.406       .  A
C330        H335   1.083   1_556  S
C331        C332   1.406       .  A
C331        C645   1.491       .  S
C332        C333   1.402       .  A
C332        H336   1.084       .  S
C333        C334   1.399       .  A
C333        C636   1.478       .  S
C334        H337   1.084       .  S
C338        C339   1.407       .  A
C338        C343   1.405       .  A
C338        C585   1.485       .  S
C339        C340   1.404       .  A
C339        H344   1.083       .  S
C340        C341   1.405       .  A
C340        C612   1.491       .  S
C341        C342   1.403       .  A
C341        H345   1.084       .  S
C342        C343   1.401       .  A
C342        C597   1.482       .  S
C343        H346   1.083       .  S
C347        C348   1.404       .  A
C347        C352   1.401       .  A
C347        C573   1.477       .  S
C348        C349   1.405       .  A
C348        H353   1.083       .  S
C349        C350   1.406       .  A
C349        C564   1.487       .  S
C350        C351   1.401       .  A
C350        H354   1.083       .  S
C351        C352   1.399       .  A
C351        C552   1.481       .  S
C352        H355   1.084       .  S
C356        C357   1.408       .  A
C356        C361   1.404       .  A
C356        C540   1.483       .  S
C357        C358   1.410       .  A
C357        H362   1.082       .  S
C358        C359   1.406       .  A
C358        C525   1.495       .  S
C359        C360   1.400       .  A
C359        H363   1.082       .  S
C360        C361   1.396       .  A
C360        C513   1.477       .  S
C361        H364   1.084       .  S
O365       Zr377   2.436       .  S
O365        C367   1.287       .  A
O366       Zr403   2.427   1_545  S
C367        C648   1.471       .  S
O368       Zr380   2.449       .  S
O368        C370   1.290       .  A
O369       Zr404   2.413       .  S
O369        C370   1.284       .  A
C370        C624   1.491       .  S
O371       Zr380   2.447   1_554  S
O371        C701   1.290       .  A
O372       Zr403   2.412   1_554  S
O372        C373   1.285       .  A
C373        C504   1.485       .  S
C373        O699   1.289   1_465  A
O374       Zr377   2.438       .  S
O374        C376   1.287       .  A
O375      Zr1060   2.416   1_455  S
O375        C376   1.284       .  A
C376        C549   1.464       .  S
Zr377       O378   2.434       .  S
Zr377       O379   2.435       .  S
Zr377       O383   2.365       .  S
Zr377       O384   2.368       .  S
Zr377       O407   2.371       .  S
Zr377       O409   2.371       .  S
O378        H421   0.990       .  S
O379        H420   0.990       .  S
O379        H424   0.990       .  S
Zr380      O1037   2.437   1_556  S
Zr380      O1040   2.372       .  S
Zr380      O1039   2.367       .  S
O381      Zr1036   2.435   1_454  S
O381        H422   0.990       .  S
O381       H1081   0.990   1_455  S
O382        H415   0.990       .  S
O383      Zr1036   2.366   1_455  S
O384      Zr1036   2.372   1_455  S
O384      Zr1060   2.379   1_455  S
O384        H411   0.965       .  S
O385       Zr397   2.441       .  S
O385       C1043   1.288       .  A
O386       Zr404   2.421       .  S
C387        C489   1.488       .  S
C387       O1041   1.289       .  A
O388       Zr400   2.433       .  S
O388        C390   1.287       .  A
O389      Zr1059   2.424       .  S
O389        C390   1.286       .  A
C390        C633   1.480       .  S
O391       Zr400   2.442       .  S
O391        C393   1.288       .  A
O392        C393   1.284       .  A
C393        C561   1.468       .  S
O394       Zr397   2.432       .  S
O394        C396   1.286       .  A
O395       Zr403   2.411       .  S
O395        C396   1.285       .  A
C396        C576   1.474       .  S
Zr397      O1054   2.435       .  S
Zr397       O399   2.435       .  S
Zr397      O1061   2.365   1_455  S
Zr397      O1062   2.376   1_455  S
O398      Zr1053   2.436       .  S
O398        H418   0.990       .  S
O398       H1079   0.990       .  S
Zr400       O401   2.435       .  S
Zr400       O402   2.435       .  S
Zr400       O406   2.371       .  S
Zr400       O405   2.366       .  S
Zr400       O410   2.371       .  S
Zr400       O408   2.374       .  S
O401        H417   0.990       .  S
O402        H416   0.990       .  S
O402        H426   0.990       .  S
Zr403      O1045   2.429   1_455  S
Zr403      O1062   2.379   1_455  S
Zr403      O1064   2.383   1_455  S
Zr404      O1031   2.412       .  S
Zr404      O1040   2.381       .  S
Zr404      O1063   2.377       .  S
O405      Zr1053   2.364       .  S
O405        H413   0.966       .  S
O406      Zr1053   2.377       .  S
O406      Zr1059   2.382       .  S
O407      Zr1060   2.376   1_455  S
O408      Zr1059   2.386       .  S
O408        H412   0.966       .  S
O409        H414   0.966       .  S
H423       O1054   0.990       .  S
H425       O1037   0.990       .  S
O427       Zr439   2.435       .  S
O427        C429   1.287       .  A
O428       Zr465   2.429   1_545  S
C429        C609   1.476       .  S
O430       Zr442   2.429       .  S
O430        C432   1.284       .  A
O431       Zr466   2.436       .  S
O431        C432   1.289       .  A
C432        C588   1.466       .  S
O433       Zr442   2.443       .  S
O433        C763   1.288       .  A
O434       Zr465   2.416       .  S
O434        C435   1.286   1_455  A
C435        C492   1.488       .  S
C435        O761   1.287   1_565  A
O436       Zr439   2.427       .  S
O436        C438   1.286       .  A
O437      Zr1122   2.424   1_455  S
O437        C438   1.286       .  A
C438        C516   1.478       .  S
Zr439       O440   2.433       .  S
Zr439       O441   2.437       .  S
Zr439       O445   2.361       .  S
Zr439       O446   2.367       .  S
Zr439       O469   2.369       .  S
Zr439       O471   2.372       .  S
O440        H483   0.990       .  S
O441        H482   0.990       .  S
O441        H486   0.990       .  S
Zr442      O1099   2.435       .  S
Zr442      O1102   2.375       .  S
Zr442      O1101   2.363       .  S
O443      Zr1098   2.437       .  S
O443        H484   0.990       .  S
O443       H1143   0.990       .  S
O444        H477   0.990       .  S
O445      Zr1098   2.364   1_455  S
O446      Zr1098   2.376   1_455  S
O446      Zr1122   2.388   1_455  S
O446        H473   0.965       .  S
O447       Zr459   2.451       .  S
O447       C1105   1.291       .  A
O448       Zr466   2.417       .  S
C449        C501   1.488       .  S
C449       O1103   1.290   1_545  A
O450       Zr462   2.428       .  S
O450        C452   1.286       .  A
O451      Zr1121   2.438       .  S
O451        C452   1.290       .  A
C452        C600   1.487       .  S
O453       Zr462   2.441       .  S
O453        C455   1.288       .  A
O454        C455   1.287       .  A
C455        C528   1.478       .  S
O456       Zr459   2.446       .  S
O456        C458   1.289       .  A
O457       Zr465   2.417       .  S
O457        C458   1.286       .  A
C458        C537   1.485       .  S
Zr459      O1116   2.436       .  S
Zr459       O461   2.435   1_565  S
Zr459      O1123   2.369   1_455  S
Zr459      O1124   2.374   1_455  S
O460      Zr1115   2.434       .  S
O460        H480   0.990       .  S
O460       H1141   0.990       .  S
Zr462       O463   2.434       .  S
Zr462       O464   2.436       .  S
Zr462       O468   2.373       .  S
Zr462       O467   2.365       .  S
Zr462       O472   2.367       .  S
Zr462       O470   2.374       .  S
O463        H479   0.990       .  S
O464        H478   0.990       .  S
O464        H488   0.990       .  S
Zr465      O1107   2.437   1_455  S
Zr465      O1124   2.378   1_455  S
Zr465      O1126   2.381   1_455  S
Zr466      O1093   2.426       .  S
Zr466      O1102   2.382       .  S
Zr466      O1125   2.385       .  S
O467      Zr1115   2.372       .  S
O467        H475   0.966       .  S
O468      Zr1115   2.370       .  S
O468      Zr1121   2.379       .  S
O469      Zr1122   2.384   1_455  S
O470      Zr1121   2.385       .  S
O470        H474   0.966       .  S
O471        H476   0.966       .  S
H485       O1116   0.990       .  S
H487       O1099   0.990       .  S
C489        C490   1.407   1_565  A
C489       C1150   1.413       .  A
C490        C491   1.400       .  A
C490        H495   1.083       .  S
C491       C1148   1.412   1_545  A
C492       C1147   1.414   1_565  A
C492        C493   1.406   1_655  A
C493        C494   1.398       .  A
C493        H497   1.083       .  S
C494       C1145   1.413       .  A
C494        O498   1.372       .  S
O496        H500   0.992       .  S
O498        H499   0.992       .  S
C501        C502   1.408   1_545  A
C501        C834   1.414       .  A
C502        C503   1.401       .  A
C502        H507   1.083       .  S
C503       C1160   1.413   1_565  A
C503        O508   1.372       .  S
C504       C1159   1.413       .  A
C505        C506   1.398       .  A
C505        H509   1.083       .  S
C506        C829   1.415   1_655  A
C506        O510   1.372       .  S
O508        H512   0.992   1_565  S
O510        H511   0.992       .  S
C513        C514   1.400       .  A
C513        C518   1.408       .  A
C514        C515   1.393       .  A
C514        H519   1.084       .  S
C515        C516   1.411       .  A
C515        O520   1.372       .  S
C516        C517   1.407       .  A
C517        C518   1.403       .  A
C517        H521   1.084       .  S
C518        O522   1.371       .  S
O520        H524   0.992       .  S
O522        H523   0.992       .  S
C525        C526   1.409       .  A
C525        C530   1.414       .  A
C526        C527   1.401       .  A
C526        H531   1.082       .  S
C527        C528   1.405       .  A
C527        O532   1.369       .  S
C528        C529   1.402       .  A
C529        C530   1.402       .  A
C529        H533   1.084       .  S
C530        O534   1.374       .  S
O532        H536   0.992       .  S
O534        H535   0.992       .  S
C537        C538   1.409       .  A
C537        C542   1.412       .  A
C538        C539   1.406       .  A
C538        H543   1.083       .  S
C539        C540   1.408       .  A
C539        O544   1.372       .  S
C540        C541   1.404       .  A
C541        C542   1.393       .  A
C541        H545   1.084       .  S
C542        O546   1.372       .  S
O544        H548   0.992       .  S
O546        H547   0.992       .  S
C549        C550   1.400       .  A
C549        C554   1.404       .  A
C550        C551   1.400       .  A
C550        H555   1.084       .  S
C551        C552   1.410       .  A
C551        O556   1.373       .  S
C552        C553   1.406       .  A
C553        C554   1.397       .  A
C553        H557   1.084       .  S
C554        O558   1.372       .  S
O556        H560   0.992       .  S
O558        H559   0.991       .  S
C561        C562   1.401       .  A
C561        C566   1.405       .  A
C562        C563   1.397       .  A
C562        H567   1.084       .  S
C563        C564   1.412       .  A
C563        O568   1.372       .  S
C564        C565   1.408       .  A
C565        C566   1.400       .  A
C565        H569   1.083       .  S
C566        O570   1.372       .  S
O568        H572   0.992       .  S
O570        H571   0.992       .  S
C573        C574   1.402       .  A
C573        C578   1.410       .  A
C574        C575   1.400       .  A
C574        H579   1.084       .  S
C575        C576   1.411       .  A
C575        O580   1.372       .  S
C576        C577   1.402       .  A
C577        C578   1.393       .  A
C577        H581   1.084       .  S
C578        O582   1.372       .  S
O580        H584   0.992       .  S
O582        H583   0.992       .  S
C585        C586   1.406       .  A
C585        C590   1.413       .  A
C586        C587   1.394       .  A
C586        H591   1.083       .  S
C587        C588   1.400       .  A
C587        O592   1.369       .  S
C588        C589   1.402       .  A
C589        C590   1.405       .  A
C589        H593   1.084       .  S
C590        O594   1.373       .  S
O592        H596   0.992       .  S
O594        H595   0.992       .  S
C597        C598   1.402       .  A
C597        C602   1.407       .  A
C598        C599   1.398       .  A
C598        H603   1.084       .  S
C599        C600   1.415       .  A
C599        O604   1.373       .  S
C600        C601   1.407       .  A
C601        C602   1.402       .  A
C601        H605   1.083       .  S
C602        O606   1.371       .  S
O604        H608   0.992       .  S
O606        H607   0.992       .  S
C609        C610   1.401       .  A
C609        C614   1.409       .  A
C610        C611   1.400       .  A
C610        H615   1.084       .  S
C611        C612   1.415       .  A
C611        O616   1.371       .  S
C612        C613   1.406       .  A
C613        C614   1.400       .  A
C613        H617   1.084       .  S
C614        O618   1.372       .  S
O616        H620   0.992       .  S
O618        H619   0.992       .  S
C621        C622   1.398       .  A
C621        C626   1.402   1_556  A
C622        C623   1.396       .  A
C622        H627   1.084       .  S
C623        C624   1.417       .  A
C623        O628   1.372       .  S
C624        C625   1.412       .  A
C625        C626   1.402   1_556  A
C625        H629   1.083   1_556  S
C626        O630   1.371       .  S
O628        H632   0.991       .  S
O630        H631   0.992       .  S
C633        C634   1.404       .  A
C633        C638   1.413       .  A
C634        C635   1.393       .  A
C634        H639   1.084       .  S
C635        C636   1.407       .  A
C635        O640   1.372       .  S
C636        C637   1.404       .  A
C637        C638   1.404       .  A
C637        H641   1.084   1_556  S
C638        O642   1.372   1_556  S
O640        H644   0.992       .  S
O642        H643   0.992       .  S
C645        C646   1.407   1_556  A
C645        C650   1.416       .  A
C646        C647   1.399       .  A
C646        H651   1.083       .  S
C647        C648   1.406   1_554  A
C647        O652   1.372       .  S
C648        C649   1.400       .  A
C649        C650   1.402       .  A
C649        H653   1.084       .  S
C650        O654   1.372       .  S
O652        H656   0.992       .  S
O654        H655   0.992       .  S
C657        C658   1.402       .  A
C657        C662   1.403       .  A
C657        C949   1.468       .  S
C658        C659   1.404       .  A
C658        H663   1.083   1_556  S
C659        C660   1.404       .  A
C659        C973   1.486       .  S
C660        C661   1.401       .  A
C660        H664   1.084       .  S
C661        C662   1.399       .  A
C661        C964   1.477       .  S
C662        H665   1.084       .  S
C666        C667   1.405       .  A
C666        C671   1.404       .  A
C666        C913   1.479       .  S
C667        C668   1.401       .  A
C667        H672   1.083       .  S
C668        C669   1.405       .  A
C668        C940   1.488       .  S
C669        C670   1.403       .  A
C669        H673   1.083       .  S
C670        C671   1.398       .  A
C670        C925   1.479       .  S
C671        H674   1.083       .  S
C675        C676   1.404       .  A
C675        C680   1.402       .  A
C675        C901   1.478       .  S
C676        C677   1.404       .  A
C676        H681   1.083       .  S
C677        C678   1.404       .  A
C677        C892   1.482       .  S
C678        C679   1.400       .  A
C678        H682   1.083       .  S
C679        C680   1.398       .  A
C679        C880   1.478       .  S
C680        H683   1.084       .  S
C684        C685   1.410       .  A
C684        C689   1.406       .  A
C684        C868   1.487       .  S
C685        C686   1.412       .  A
C685        H690   1.081       .  S
C686        C687   1.405       .  A
C686        C853   1.497       .  S
C687        C688   1.397       .  A
C687        H691   1.081       .  S
C688        C689   1.397       .  A
C688        C841   1.477       .  S
C689        H692   1.084       .  S
O693       Zr705   2.431       .  S
O693        C695   1.286       .  A
O694       Zr731   2.427       .  S
O694       C1023   1.286       .  A
C695        C976   1.467       .  S
C695       O1022   1.285       .  A
O696       Zr708   2.440       .  S
O696        C698   1.287       .  A
O697       Zr732   2.411       .  S
O697        C698   1.284       .  A
C698        C952   1.487       .  S
O699       Zr708   2.442   1_554  S
O700       Zr731   2.410   1_554  S
O700        C701   1.284       .  A
C701        C832   1.482       .  S
O702       Zr705   2.434       .  S
O702        C704   1.286       .  A
O703        C704   1.284       .  A
C704        C877   1.461       .  S
Zr705       O706   2.434       .  S
Zr705       O707   2.437       .  S
Zr705       O711   2.366       .  S
Zr705       O712   2.370       .  S
Zr705       O735   2.370       .  S
Zr705       O737   2.369       .  S
O706        H749   0.990       .  S
O707        H748   0.990       .  S
O707        H752   0.990       .  S
Zr708      O1038   2.434   1_546  S
Zr708      O1064   2.372   1_545  S
Zr708      O1066   2.375   1_545  S
O709        H750   0.990       .  S
O710      Zr1036   2.435   1_554  S
O710        H743   0.990       .  S
O711      Zr1059   2.377   1_545  S
O712        H739   0.965       .  S
O713       Zr725   2.446       .  S
O714       Zr732   2.415       .  S
O714       C1043   1.286   1_645  A
C715        C817   1.487       .  S
C715       O1042   1.286   1_455  A
O716       Zr728   2.437       .  S
O716        C718   1.288       .  A
O717        C718   1.286       .  A
C718        C961   1.479       .  S
O719       Zr728   2.438       .  S
O719        C721   1.287       .  A
O720      Zr1060   2.413       .  S
O720        C721   1.283       .  A
C721        C889   1.462       .  S
O722       Zr725   2.433       .  S
O722        C724   1.286       .  A
O723       Zr731   2.414       .  S
O723        C724   1.286       .  A
C724        C904   1.471       .  S
Zr725       O727   2.433       .  S
Zr725      O1065   2.375       .  S
Zr725      O1063   2.367       .  S
O726        H746   0.990       .  S
O727       H1075   0.990       .  S
Zr728       O729   2.435       .  S
Zr728       O730   2.435       .  S
Zr728       O734   2.370       .  S
Zr728       O733   2.368       .  S
Zr728       O738   2.368       .  S
Zr728       O736   2.371       .  S
O729        H745   0.990       .  S
O730        H744   0.990       .  S
O730        H754   0.990       .  S
Zr731      O1039   2.376       .  S
Zr731      O1065   2.384       .  S
Zr732      O1048   2.416   1_545  S
Zr732      O1061   2.379   1_545  S
Zr732      O1066   2.376   1_545  S
O733      Zr1060   2.379       .  S
O733        H741   0.966       .  S
O735      Zr1053   2.367   1_545  S
O736      Zr1036   2.373       .  S
O736        H740   0.966       .  S
O737      Zr1053   2.376   1_545  S
O737      Zr1059   2.387   1_545  S
O737        H742   0.966       .  S
O738      Zr1036   2.373       .  S
O738      Zr1060   2.378       .  S
H747       O1055   0.990   1_545  S
O755       Zr767   2.428       .  S
O755        C757   1.286       .  A
O756       Zr793   2.431       .  S
O756       C1085   1.288       .  A
C757        C937   1.478       .  S
C757       O1084   1.290       .  A
O758       Zr770   2.424       .  S
O758        C760   1.283       .  A
O759       Zr794   2.424       .  S
O759        C760   1.287       .  A
C760        C916   1.458       .  S
O761       Zr770   2.435       .  S
O762       Zr793   2.422       .  S
O762        C763   1.287       .  A
C763        C820   1.491       .  S
O764       Zr767   2.426       .  S
O764        C766   1.286       .  A
O765        C766   1.286       .  A
C766        C844   1.477       .  S
Zr767       O768   2.436       .  S
Zr767       O769   2.434       .  S
Zr767       O773   2.362       .  S
Zr767       O774   2.366       .  S
Zr767       O797   2.367       .  S
Zr767       O799   2.371       .  S
O768        H811   0.990       .  S
O769        H810   0.990       .  S
O769        H814   0.990       .  S
Zr770      O1100   2.434   1_545  S
Zr770      O1126   2.368   1_545  S
Zr770      O1128   2.379   1_545  S
O771        H812   0.990       .  S
O772      Zr1098   2.434       .  S
O772        H805   0.990       .  S
O773      Zr1121   2.377   1_545  S
O774        H801   0.965       .  S
O775       Zr787   2.446       .  S
O776       Zr794   2.415       .  S
O776       C1105   1.285   1_645  A
C777        C829   1.491       .  S
C777       O1104   1.286   1_455  A
O778       Zr790   2.424       .  S
O778        C780   1.285       .  A
O779        C780   1.288       .  A
C780        C928   1.483       .  S
O781       Zr790   2.439       .  S
O781        C783   1.288       .  A
O782      Zr1122   2.429       .  S
O782        C783   1.286       .  A
C783        C856   1.479       .  S
O784       Zr787   2.447       .  S
O784        C786   1.289       .  A
O785       Zr793   2.418       .  S
O785        C786   1.286       .  A
C786        C865   1.486       .  S
Zr787       O789   2.434       .  S
Zr787      O1127   2.374       .  S
Zr787      O1125   2.372       .  S
O788        H808   0.990   1_455  S
O789       H1137   0.990       .  S
Zr790       O791   2.432       .  S
Zr790       O792   2.436       .  S
Zr790       O796   2.373       .  S
Zr790       O795   2.361       .  S
Zr790       O800   2.369       .  S
Zr790       O798   2.378       .  S
O791        H807   0.990       .  S
O792        H806   0.990       .  S
O792        H816   0.990       .  S
Zr793      O1101   2.373       .  S
Zr793      O1127   2.385       .  S
Zr794      O1110   2.436   1_545  S
Zr794      O1123   2.380   1_545  S
Zr794      O1128   2.380   1_545  S
O795      Zr1122   2.382       .  S
O795        H803   0.966       .  S
O797      Zr1115   2.372   1_545  S
O798      Zr1098   2.370       .  S
O798        H802   0.966       .  S
O799      Zr1115   2.373   1_545  S
O799      Zr1121   2.383   1_545  S
O799        H804   0.966       .  S
O800      Zr1098   2.378       .  S
O800      Zr1122   2.382       .  S
H809       O1117   0.990       .  S
C817        C818   1.406   1_455  A
C818        C819   1.398       .  A
C818        H823   1.083       .  S
C819       O1152   1.372       .  S
C820        C821   1.407       .  A
C821        C822   1.400       .  A
C821        H825   1.083       .  S
C822        O826   1.372       .  S
O824       C1147   1.372       .  S
O824        H828   0.992       .  S
O826        H827   0.992       .  S
C829        C830   1.408       .  A
C830        C831   1.400       .  A
C830        H835   1.083       .  S
C831        O836   1.372       .  S
C832       C1161   1.403       .  A
C833       C1160   1.405       .  A
C833        C834   1.398       .  A
C833        H837   1.083       .  S
C834        O838   1.372       .  S
O836        H840   0.992       .  S
O838        H839   0.992   1_545  S
C841        C842   1.401       .  A
C841        C846   1.407       .  A
C842        C843   1.393       .  A
C842        H847   1.084       .  S
C843        C844   1.411       .  A
C843        O848   1.372       .  S
C844        C845   1.407       .  A
C845        C846   1.402       .  A
C845        H849   1.084       .  S
C846        O850   1.371       .  S
O848        H852   0.992       .  S
O850        H851   0.991       .  S
C853        C854   1.409       .  A
C853        C858   1.416       .  A
C854        C855   1.402       .  A
C854        H859   1.082       .  S
C855        C856   1.406       .  A
C855        O860   1.369       .  S
C856        C857   1.402       .  A
C857        C858   1.401       .  A
C857        H861   1.084       .  S
C858        O862   1.375       .  S
O860        H864   0.992       .  S
O862        H863   0.993       .  S
C865        C866   1.408       .  A
C865        C870   1.411       .  A
C866        C867   1.408       .  A
C866        H871   1.083       .  S
C867        C868   1.410       .  A
C867        O872   1.372       .  S
C868        C869   1.404       .  A
C869        C870   1.393       .  A
C869        H873   1.084       .  S
C870        O874   1.372       .  S
O872        H876   0.992       .  S
O874        H875   0.992       .  S
C877        C878   1.400       .  A
C877        C882   1.403       .  A
C878        C879   1.400       .  A
C878        H883   1.084       .  S
C879        C880   1.409       .  A
C879        O884   1.373       .  S
C880        C881   1.405       .  A
C881        C882   1.396       .  A
C881        H885   1.084       .  S
C882        O886   1.372       .  S
O884        H888   0.992       .  S
O886        H887   0.991       .  S
C889        C890   1.399       .  A
C889        C894   1.405       .  A
C890        C891   1.394       .  A
C890        H895   1.084       .  S
C891        C892   1.411       .  A
C891        O896   1.372       .  S
C892        C893   1.407       .  A
C893        C894   1.399       .  A
C893        H897   1.083       .  S
C894        O898   1.372       .  S
O896        H900   0.991       .  S
O898        H899   0.992       .  S
C901        C902   1.404       .  A
C901        C906   1.411       .  A
C902        C903   1.400       .  A
C902        H907   1.084       .  S
C903        C904   1.410       .  A
C903        O908   1.372       .  S
C904        C905   1.401       .  A
C905        C906   1.392       .  A
C905        H909   1.084       .  S
C906        O910   1.372       .  S
O908        H912   0.992       .  S
O910        H911   0.992       .  S
C913        C914   1.406       .  A
C913        C918   1.411       .  A
C914        C915   1.392       .  A
C914        H919   1.083       .  S
C915        C916   1.399       .  A
C915        O920   1.370       .  S
C916        C917   1.401       .  A
C917        C918   1.401       .  A
C917        H921   1.084       .  S
C918        O922   1.373       .  S
O920        H924   0.992   1_545  S
O922        H923   0.992       .  S
C925        C926   1.400       .  A
C925        C930   1.408       .  A
C926        C927   1.395       .  A
C926        H931   1.084       .  S
C927        C928   1.414       .  A
C927        O932   1.373       .  S
C928        C929   1.407       .  A
C929        C930   1.403       .  A
C929        H933   1.083       .  S
C930        O934   1.372       .  S
O932        H936   0.992       .  S
O934        H935   0.992       .  S
C937        C938   1.401       .  A
C937        C942   1.411       .  A
C938        C939   1.400       .  A
C938        H943   1.084       .  S
C939        C940   1.416       .  A
C939        O944   1.372       .  S
C940        C941   1.404       .  A
C941        C942   1.398       .  A
C941        H945   1.084       .  S
C942        O946   1.372       .  S
O944        H948   0.992       .  S
O946        H947   0.992       .  S
C949        C950   1.397       .  A
C949        C954   1.403   1_556  A
C950        C951   1.393       .  A
C950        H955   1.084       .  S
C951        C952   1.415       .  A
C951        O956   1.372       .  S
C952        C953   1.412       .  A
C953        C954   1.402   1_556  A
C953        H957   1.083   1_556  S
C954        O958   1.372       .  S
O956        H960   0.991       .  S
O958        H959   0.992       .  S
C961        C962   1.403       .  A
C961        C966   1.414       .  A
C962        C963   1.393       .  A
C962        H967   1.084       .  S
C963        C964   1.407       .  A
C963        O968   1.372       .  S
C964        C965   1.403       .  A
C965        C966   1.404       .  A
C965        H969   1.084   1_556  S
C966        O970   1.372   1_556  S
O968        H972   0.992       .  S
O970        H971   0.992       .  S
C973        C974   1.406   1_556  A
C973        C978   1.414       .  A
C974        C975   1.397       .  A
C974        H979   1.084       .  S
C975        C976   1.406   1_554  A
C975        O980   1.373       .  S
C976        C977   1.399       .  A
C977        C978   1.400       .  A
C977        H981   1.084       .  S
C978        O982   1.372       .  S
O980        H984   0.992       .  S
O982        H983   0.992       .  S
C985        C986   1.401   1_556  A
C985        C990   1.401       .  A
C985       C1277   1.469       .  S
C986        C987   1.405   1_554  A
C986        H991   1.082       .  S
C987        C988   1.407       .  A
C987       C1301   1.492       .  S
C988        C989   1.403       .  A
C988        H992   1.084       .  S
C989        C990   1.398       .  A
C989       C1292   1.478       .  S
C990        H993   1.084       .  S
C994        C995   1.405       .  A
C994        C999   1.407       .  A
C994       C1241   1.485       .  S
C995        C996   1.402       .  A
C995       H1000   1.083       .  S
C996        C997   1.405       .  A
C996       C1268   1.488       .  S
C997        C998   1.404       .  A
C997       H1001   1.084       .  S
C998        C999   1.402       .  A
C998       C1253   1.483       .  S
C999       H1002   1.082       .  S
C1003      C1004   1.405       .  A
C1003      C1008   1.400       .  A
C1003      C1229   1.480       .  S
C1004      C1005   1.406       .  A
C1004      H1009   1.083       .  S
C1005      C1006   1.406       .  A
C1005      C1220   1.485       .  S
C1006      C1007   1.400       .  A
C1006      H1010   1.083       .  S
C1007      C1008   1.398       .  A
C1007      C1208   1.478       .  S
C1008      H1011   1.084       .  S
C1012      C1013   1.409       .  A
C1012      C1017   1.404       .  A
C1012      C1196   1.484       .  S
C1013      C1014   1.413       .  A
C1013      H1018   1.082       .  S
C1014      C1015   1.407       .  A
C1014      C1181   1.497       .  S
C1015      C1016   1.400       .  A
C1015      H1019   1.082       .  S
C1016      C1017   1.396       .  A
C1016      C1169   1.479       .  S
C1017      H1020   1.084       .  S
O1021     Zr1033   2.432       .  S
O1021      C1023   1.286       .  A
O1022     Zr1059   2.421   1_545  S
C1023      C1304   1.471       .  S
O1024     Zr1036   2.449       .  S
O1024      C1026   1.290       .  A
O1025     Zr1060   2.408       .  S
O1025      C1026   1.284       .  A
C1026      C1280   1.489       .  S
O1027     Zr1036   2.448   1_554  S
O1028     Zr1059   2.419   1_554  S
O1028      C1029   1.286       .  A
C1029      C1160   1.486   1_565  S
O1030     Zr1033   2.431       .  S
O1030      C1032   1.286       .  A
O1031      C1032   1.284       .  A
C1032      C1205   1.459       .  S
Zr1033     O1034   2.434       .  S
Zr1033     O1035   2.436       .  S
Zr1033     O1039   2.365       .  S
Zr1033     O1040   2.370       .  S
Zr1033     O1063   2.370       .  S
Zr1033     O1065   2.369       .  S
O1034      H1077   0.990       .  S
O1035      H1076   0.990       .  S
O1035      H1080   0.990       .  S
O1037      H1078   0.990       .  S
O1038      H1071   0.990       .  S
O1040      H1067   0.965       .  S
O1041     Zr1053   2.449       .  S
O1042     Zr1060   2.419       .  S
C1043      C1145   1.488       .  S
O1044     Zr1056   2.431       .  S
O1044      C1046   1.287       .  A
O1045      C1046   1.287       .  A
C1046      C1289   1.480       .  S
O1047     Zr1056   2.437       .  S
O1047      C1049   1.287       .  A
O1048      C1049   1.284       .  A
C1049      C1217   1.464       .  S
O1050     Zr1053   2.430       .  S
O1050      C1052   1.286       .  A
O1051     Zr1059   2.419       .  S
O1051      C1052   1.286       .  A
C1052      C1232   1.472       .  S
Zr1053     O1055   2.434       .  S
O1054      H1074   0.990   1_455  S
Zr1056     O1057   2.436       .  S
Zr1056     O1058   2.435       .  S
Zr1056     O1062   2.371       .  S
Zr1056     O1061   2.366       .  S
Zr1056     O1066   2.370       .  S
Zr1056     O1064   2.372       .  S
O1057      H1073   0.990       .  S
O1058      H1072   0.990       .  S
O1058      H1082   0.990       .  S
O1061      H1069   0.966       .  S
O1064      H1068   0.966       .  S
O1065      H1070   0.966       .  S
O1083     Zr1095   2.428       .  S
O1083      C1085   1.285       .  A
O1084     Zr1121   2.442   1_545  S
C1085      C1265   1.474       .  S
O1086     Zr1098   2.435       .  S
O1086      C1088   1.285       .  A
O1087     Zr1122   2.429       .  S
O1087      C1088   1.287       .  A
C1088      C1244   1.466       .  S
O1089     Zr1098   2.445       .  S
O1090     Zr1121   2.417       .  S
O1090      C1091   1.286       .  A
C1091      C1148   1.486       .  S
O1092     Zr1095   2.428       .  S
O1092      C1094   1.286       .  A
O1093      C1094   1.287       .  A
C1094      C1172   1.481       .  S
Zr1095     O1096   2.434       .  S
Zr1095     O1097   2.437       .  S
Zr1095     O1101   2.362       .  S
Zr1095     O1102   2.362       .  S
Zr1095     O1125   2.369       .  S
Zr1095     O1127   2.374       .  S
O1096      H1139   0.990       .  S
O1097      H1138   0.990       .  S
O1097      H1142   0.990       .  S
O1099      H1140   0.990       .  S
O1100      H1133   0.990       .  S
O1102      H1129   0.965       .  S
O1103     Zr1115   2.446       .  S
O1104     Zr1122   2.421       .  S
C1105      C1157   1.489   1_565  S
O1106     Zr1118   2.429       .  S
O1106      C1108   1.286       .  A
O1107      C1108   1.289       .  A
C1108      C1256   1.488       .  S
O1109     Zr1118   2.434       .  S
O1109      C1111   1.287       .  A
O1110      C1111   1.288       .  A
C1111      C1184   1.480       .  S
O1112     Zr1115   2.452       .  S
O1112      C1114   1.290       .  A
O1113     Zr1121   2.418       .  S
O1113      C1114   1.286       .  A
C1114      C1193   1.490       .  S
Zr1115     O1117   2.434   1_565  S
O1116      H1136   0.990   1_455  S
Zr1118     O1119   2.432       .  S
Zr1118     O1120   2.434       .  S
Zr1118     O1124   2.369       .  S
Zr1118     O1123   2.363       .  S
Zr1118     O1128   2.370       .  S
Zr1118     O1126   2.373       .  S
O1119      H1135   0.990       .  S
O1120      H1134   0.990       .  S
O1120      H1144   0.990       .  S
O1123      H1131   0.966       .  S
O1126      H1130   0.966       .  S
O1127      H1132   0.966       .  S
C1145      C1146   1.407   1_465  A
C1146      C1147   1.398       .  A
C1146      H1151   1.083       .  S
C1148      C1149   1.405       .  A
C1149      C1150   1.399       .  A
C1149      H1153   1.084       .  S
C1150      O1154   1.371       .  S
O1152      H1156   0.992   1_655  S
O1154      H1155   0.992       .  S
C1157      C1158   1.406   1_545  A
C1158      C1159   1.399       .  A
C1158      H1163   1.083       .  S
C1159      O1164   1.372       .  S
C1161      C1162   1.397       .  A
C1161      H1165   1.084       .  S
C1162      O1166   1.372       .  S
O1164      H1168   0.992   1_565  S
O1166      H1167   0.992       .  S
C1169      C1170   1.401       .  A
C1169      C1174   1.408       .  A
C1170      C1171   1.394       .  A
C1170      H1175   1.084       .  S
C1171      C1172   1.412       .  A
C1171      O1176   1.373       .  S
C1172      C1173   1.407       .  A
C1173      C1174   1.404       .  A
C1173      H1177   1.084       .  S
C1174      O1178   1.372       .  S
O1176      H1180   0.992       .  S
O1178      H1179   0.992       .  S
C1181      C1182   1.409       .  A
C1181      C1186   1.415       .  A
C1182      C1183   1.401       .  A
C1182      H1187   1.082       .  S
C1183      C1184   1.406       .  A
C1183      O1188   1.369       .  S
C1184      C1185   1.403       .  A
C1185      C1186   1.403       .  A
C1185      H1189   1.084       .  S
C1186      O1190   1.375       .  S
O1188      H1192   0.992       .  S
O1190      H1191   0.992       .  S
C1193      C1194   1.411       .  A
C1193      C1198   1.413       .  A
C1194      C1195   1.408       .  A
C1194      H1199   1.083       .  S
C1195      C1196   1.408       .  A
C1195      O1200   1.372       .  S
C1196      C1197   1.402       .  A
C1197      C1198   1.393       .  A
C1197      H1201   1.084       .  S
C1198      O1202   1.372       .  S
O1200      H1204   0.992       .  S
O1202      H1203   0.992       .  S
C1205      C1206   1.400       .  A
C1205      C1210   1.402       .  A
C1206      C1207   1.400       .  A
C1206      H1211   1.084       .  S
C1207      C1208   1.409       .  A
C1207      O1212   1.372       .  S
C1208      C1209   1.406       .  A
C1209      C1210   1.395       .  A
C1209      H1213   1.084       .  S
C1210      O1214   1.372       .  S
O1212      H1216   0.992       .  S
O1214      H1215   0.991       .  S
C1217      C1218   1.400       .  A
C1217      C1222   1.404       .  A
C1218      C1219   1.397       .  A
C1218      H1223   1.084       .  S
C1219      C1220   1.412       .  A
C1219      O1224   1.372       .  S
C1220      C1221   1.408       .  A
C1221      C1222   1.398       .  A
C1221      H1225   1.083       .  S
C1222      O1226   1.372       .  S
O1224      H1228   0.991       .  S
O1226      H1227   0.992       .  S
C1229      C1230   1.403       .  A
C1229      C1234   1.412       .  A
C1230      C1231   1.400       .  A
C1230      H1235   1.084       .  S
C1231      C1232   1.410       .  A
C1231      O1236   1.372       .  S
C1232      C1233   1.401       .  A
C1233      C1234   1.394       .  A
C1233      H1237   1.084       .  S
C1234      O1238   1.372       .  S
O1236      H1240   0.992       .  S
O1238      H1239   0.992       .  S
C1241      C1242   1.407       .  A
C1241      C1246   1.411       .  A
C1242      C1243   1.395       .  A
C1242      H1247   1.083       .  S
C1243      C1244   1.401       .  A
C1243      O1248   1.370       .  S
C1244      C1245   1.402       .  A
C1245      C1246   1.403       .  A
C1245      H1249   1.084       .  S
C1246      O1250   1.373       .  S
O1248      H1252   0.992       .  S
O1250      H1251   0.992       .  S
C1253      C1254   1.401       .  A
C1253      C1258   1.408       .  A
C1254      C1255   1.397       .  A
C1254      H1259   1.084       .  S
C1255      C1256   1.415       .  A
C1255      O1260   1.373       .  S
C1256      C1257   1.408       .  A
C1257      C1258   1.405       .  A
C1257      H1261   1.083       .  S
C1258      O1262   1.371       .  S
O1260      H1264   0.992       .  S
O1262      H1263   0.992       .  S
C1265      C1266   1.400       .  A
C1265      C1270   1.410       .  A
C1266      C1267   1.398       .  A
C1266      H1271   1.084       .  S
C1267      C1268   1.415       .  A
C1267      O1272   1.372       .  S
C1268      C1269   1.406       .  A
C1269      C1270   1.399       .  A
C1269      H1273   1.084       .  S
C1270      O1274   1.372       .  S
O1272      H1276   0.992       .  S
O1274      H1275   0.992       .  S
C1277      C1278   1.398       .  A
C1277      C1282   1.401   1_556  A
C1278      C1279   1.396       .  A
C1278      H1283   1.084       .  S
C1279      C1280   1.417       .  A
C1279      O1284   1.373       .  S
C1280      C1281   1.411       .  A
C1281      C1282   1.401   1_556  A
C1281      H1285   1.083   1_556  S
C1282      O1286   1.371       .  S
O1284      H1288   0.992       .  S
O1286      H1287   0.992       .  S
C1289      C1290   1.404       .  A
C1289      C1294   1.413       .  A
C1290      C1291   1.393       .  A
C1290      H1295   1.084       .  S
C1291      C1292   1.407       .  A
C1291      O1296   1.372       .  S
C1292      C1293   1.404       .  A
C1293      C1294   1.405       .  A
C1293      H1297   1.083   1_556  S
C1294      O1298   1.372   1_556  S
O1296      H1300   0.992       .  S
O1298      H1299   0.992       .  S
C1301      C1302   1.407   1_556  A
C1301      C1306   1.417       .  A
C1302      C1303   1.399   1_554  A
C1302      H1307   1.083       .  S
C1303      C1304   1.406       .  A
C1303      O1308   1.372   1_556  S
C1304      C1305   1.399       .  A
C1305      C1306   1.401       .  A
C1305      H1309   1.084       .  S
C1306      O1310   1.372       .  S
O1308      H1312   0.992   1_554  S
O1310      H1311   0.992       .  S
