geometry optimzed in LAMMPS
_audit_creation_date              2020-12-01 
_audit_creation_method            'lammps2cif' 
_symmetry_space_group_name_H-M    'P1' 
_symmetry_Int_Tables_number       1 
_symmetry_cell_setting            triclinic 
loop_ 
_symmetry_equiv_pos_as_xyz 
  x,y,z 
_cell_length_a                    38.9900714 
_cell_length_b                    39.060826946589046 
_cell_length_c                    29.47303455336283 
_cell_angle_alpha                 87.72480652771557 
_cell_angle_beta                  88.11583130768489 
_cell_angle_gamma                 123.05720314739048 
loop_ 
_atom_site_label 
_atom_site_type_symbol 
_atom_site_fract_x 
_atom_site_fract_y 
_atom_site_fract_z 
_atom_site_charge 
N1          N  0.14934189  0.13670525  0.37230940    -0.02000
C2          C  0.18003389  0.17448450  0.35494687     0.00600
C3          C  0.20805350  0.19412741  0.38760534    -0.22300
C4          C  0.19341864  0.16828728  0.42650939    -0.22500
C5          C  0.15702197  0.13371011  0.41634329     0.00500
H6          H  0.23367156  0.22576340  0.38519871     0.14200
H7          H  0.20615463  0.17535742  0.45949385     0.14300
N8          N  0.06567283  0.91930316  0.39243276    -0.02000
C9          C  0.07413014  0.39065838  0.38311970     0.00600
C10         C  0.07311931  0.37020164  0.42321250    -0.22300
C11         C  0.06498531  0.38724883  0.45827828    -0.22500
C12         C  0.06096068  0.91728721  0.43855002     0.00500
H13         H  0.08069131  0.34741084  0.42675032     0.14200
H14         H  0.06417392  0.37998028  0.49428304     0.14300
C15         C  0.17858579  0.36162543  0.28096983     0.04600
C16         C  0.17134565  0.32504810  0.26376308    -0.11600
C17         C  0.20062449  0.31453261  0.26643477     0.02100
C18         C  0.24066391  0.34496805  0.27635904    -0.10100
C19         C  0.25023501  0.38288830  0.29060328     0.04600
C20         C  0.21844991  0.38978088  0.29502246    -0.09500
H21         H  0.14226740  0.30294745  0.25099967     0.10200
H22         H  0.26376666  0.33782677  0.27729451     0.07700
H23         H  0.22440657  0.41611408  0.31248588     0.07500
N24         N  0.42890450  0.49514640  0.39537831    -0.02000
C25         C  0.39185021  0.48899849  0.38740383     0.00600
C26         C  0.37534568  0.49522352  0.42610161    -0.22300
C27         C  0.40258237  0.50489351  0.45919999    -0.22500
C28         C  0.43470577  0.50418913  0.43961196     0.00500
H29         H  0.34493508  0.48944775  0.43099486     0.14200
H30         H  0.39831826  0.50953020  0.49437537     0.14300
Zn31       Zn  0.10219148  0.02652208  0.51074074     1.49700
Zn32       Zn  0.04725148  0.06490692  0.50897251     1.49400
Zn33       Zn  0.00382694  0.46687876  0.51561526     1.49100
Zn34       Zn  0.04873434  0.01829850  0.09930105     1.49500
O35         O  0.05050054  0.01923136  0.03334653    -1.82700
O36         O  0.13397925  0.07521217  0.46583942    -0.73300
O37         O  0.49732106  0.54393057  0.47367080    -0.73100
O38         O  0.02243279  0.43890495  0.47596100    -0.72600
O39         O  0.09647010  0.10242842  0.46481412    -0.73300
O40         O  0.09047780  0.97757549  0.47749602    -0.72900
O41         O  0.46599062  0.47607382  0.47994943    -0.73500
O42         O  0.00473218  0.46291259  0.12827236    -0.72900
O43         O  0.54073644  0.09580139  0.05944602    -0.73700
O44         O  0.97211779  0.42693387  0.07020945    -0.73000
O45         O  0.03701744  0.05918423  0.12109147    -0.73500
O46         O  0.10232207  0.03113092  0.12244843    -0.73400
O47         O  0.13904084  0.03435610  0.06142915    -0.73200
C48         C  0.12761403  0.10208917  0.45086223     0.78600
C49         C  0.46792003  0.50829621  0.46556528     0.79100
C50         C  0.05773942  0.94624824  0.46518745     0.78000
C51         C  0.97647880  0.42979562  0.11281834     0.78400
C52         C  0.53563298  0.08837543  0.10255223     0.79500
C53         C  0.13466607  0.03543846  0.10424885     0.78600
Zn54       Zn  0.04576461  0.01490968  0.34965727     1.49700
Zn55       Zn  0.99336757  0.50792878  0.26487144     1.49400
Zn56       Zn  0.09238218  0.06564998  0.25628549     1.49100
Zn57       Zn  0.04735260  0.96716659  0.26618579     1.49500
O58         O  0.04451816  0.01389516  0.28389303    -1.82700
O59         O  0.99175567  0.50244564  0.37745273    -0.73300
O60         O  0.50728654  0.55791060  0.22362974    -0.73100
O61         O  0.12512165  0.10545446  0.30378449    -0.72600
O62         O  0.45531097  0.50032872  0.32011024    -0.73300
O63         O  0.09025744  0.07079683  0.36829497    -0.72900
O64         O  0.07556305  0.09560346  0.21533174    -0.73500
O65         O  0.09689349  0.98623615  0.22439531    -0.72900
O66         O  0.96221610  0.45834963  0.22767134    -0.73700
O67         O  0.12859618  0.05411295  0.21789659    -0.73000
O68         O  0.99821596  0.42945230  0.23092488    -0.73500
O69         O  0.05368395  0.93641242  0.31951826    -0.73400
O70         O  0.05725289  0.97362521  0.37614782    -0.73200
C71         C  0.45944634  0.49851669  0.36281152     0.78600
C72         C  0.54098247  0.08931775  0.20648865     0.79100
C73         C  0.11979015  0.10323963  0.34695722     0.78000
C74         C  0.12616556  0.02132449  0.20837694     0.78400
C75         C  0.96800224  0.43042328  0.21738960     0.79500
C76         C  0.05900765  0.94437874  0.36116693     0.78600
N77         N  0.16485845  0.03750073  0.13299448    -0.02000
C78         C  0.20096517  0.04277613  0.11884257     0.00600
C79         C  0.21580766  0.03110746  0.15426723    -0.22300
C80         C  0.18840097  0.01912812  0.19143298    -0.22500
C81         C  0.15793734  0.02413353  0.17747498     0.00500
H82         H  0.24571124  0.03549445  0.15463205     0.14200
H83         H  0.19196901  0.01079453  0.22559599     0.14300
N84         N  0.53149323  0.11513599  0.13133163    -0.02000
C85         C  0.52773467  0.14656758  0.11783753     0.00600
C86         C  0.53603363  0.17158328  0.15350844    -0.22300
C87         C  0.54379758  0.15441387  0.19017300    -0.22500
C88         C  0.54001196  0.11945387  0.17583684     0.00500
H89         H  0.53203325  0.19688808  0.15442719     0.14200
H90         H  0.54896283  0.16482965  0.22425578     0.14300
C91         C  0.41829377  0.17536384  0.02687656     0.04600
C92         C  0.37597114  0.14862875  0.02172787    -0.11600
C93         C  0.34967694  0.16293234  0.02172874     0.02100
C94         C  0.36717359  0.20533403  0.02236770    -0.10100
C95         C  0.40903562  0.23259735  0.02882248     0.04600
C96         C  0.43474224  0.21766175  0.02732178    -0.09500
H97         H  0.36304768  0.11610240  0.02249921     0.10200
H98         H  0.34709143  0.21641379  0.02365916     0.07700
H99         H  0.46713198  0.23850215  0.03155778     0.07500
N100        N  0.94738750  0.39602060  0.14412456    -0.02000
C101        C  0.91927655  0.35725635  0.13358574     0.00600
C102        C  0.89264879  0.33558503  0.17131115    -0.22300
C103        C  0.90540378  0.36150945  0.20619565    -0.22500
C104        C  0.93930855  0.39823519  0.18869310     0.00500
H105        H  0.36956899  0.30304604  0.17468760     0.14200
H106        H  0.89356987  0.35328788  0.24137329     0.14300
C107        C  0.42668771  0.33539517  0.09857743     0.01300
C108        C  0.44728848  0.31682937  0.11179863    -0.10600
C109        C  0.44462230  0.28529654  0.08796119     0.03500
C110        C  0.42247896  0.27294805  0.04798607     0.01200
C111        C  0.40591610  0.29526127  0.03200770    -0.10500
C112        C  0.40695843  0.32548545  0.05753753     0.03400
H113        H  0.96218146  0.32420578  0.14367930     0.16400
H114        H  0.38935891  0.28693334  0.00128291     0.16400
C115        C  0.38531100  0.34390178  0.04271715     0.38000
C116        C  0.46062834  0.26330804  0.10922685     0.38000
N117        N  0.36793257  0.35867404  0.03090370    -0.42300
N118        N  0.47345832  0.24579780  0.12651690    -0.42300
C119        C  0.49952477  0.14419502  0.08360224     0.01300
C120        C  0.45757950  0.12037100  0.09677574    -0.10600
C121        C  0.43000900  0.12809898  0.07711699     0.03500
C122        C  0.44399895  0.15940565  0.04154651     0.01200
C123        C  0.48545295  0.18013102  0.02512622    -0.10500
C124        C  0.51321501  0.17321464  0.04626397     0.03400
H125        H  0.44703718  0.09857607  0.12615451     0.16400
H126        H  0.49680304  0.20370671  0.99755050     0.16400
C127        C  0.55599283  0.19768412  0.03074410     0.38000
C128        C  0.38892781  0.10654744  0.09838290     0.38000
N129        N  0.59027295  0.21715886  0.01811927    -0.42300
N130        N  0.35605448  0.08910602  0.11554448    -0.42300
C131        C  0.22995483  0.07443714  0.08350657     0.01300
C132        C  0.24475558  0.06369000  0.04633702    -0.10600
C133        C  0.28121830  0.09336913  0.02110354     0.03500
C134        C  0.30481061  0.13385294  0.03518264     0.01200
C135        C  0.28720807  0.14486716  0.06950235    -0.10500
C136        C  0.24989638  0.11592526  0.09276640     0.03400
H137        H  0.22885833  0.03189990  0.03830996     0.16400
H138        H  0.30398944  0.17543035  0.08139292     0.16400
C139        C  0.23505573  0.12895642  0.12951380     0.38000
C140        C  0.29379228  0.08150070  0.98132846     0.38000
N141        N  0.22316211  0.13944242  0.15884946    -0.42300
N142        N  0.30357650  0.07200790  0.94917559    -0.42300
C143        C  0.29150674  0.41199041  0.30829043     0.01300
C144        C  0.31000920  0.39591916  0.33422200    -0.10600
C145        C  0.34630787  0.42139097  0.35542135     0.03500
C146        C  0.36460604  0.46405803  0.35215352     0.01200
C147        C  0.34769511  0.48059889  0.32469273    -0.10500
C148        C  0.31190752  0.45519183  0.30222079     0.03400
H149        H  0.29491171  0.36311989  0.34059488     0.16400
H150        H  0.36129026  0.51340944  0.32280134     0.16400
C151        C  0.29647391  0.47449007  0.27430360     0.37600
C152        C  0.36179716  0.40266865  0.38428003     0.38000
N153        N  0.28410778  0.49018615  0.25231728    -0.42300
N154        N  0.37414427  0.38766599  0.40745661    -0.42300
C155        C  0.09241327  0.38671211  0.34013464     0.01300
C156        C  0.07785316  0.34687561  0.32827238    -0.10600
C157        C  0.10327449  0.33748900  0.30481667     0.03500
C158        C  0.14472453  0.36911853  0.29118310     0.01200
C159        C  0.15580675  0.40992741  0.29517893    -0.10500
C160        C  0.13093233  0.41886735  0.32086445     0.03400
H161        H  0.04773434  0.32206239  0.34215627     0.16400
H162        H  0.18577143  0.43525602  0.28184845     0.16400
C163        C  0.14802264  0.46067928  0.33180499     0.38000
C164        C  0.08540628  0.29461714  0.29896389     0.38000
N165        N  0.16191982  0.49419488  0.34073486    -0.42300
N166        N  0.06944333  0.25995918  0.29428908    -0.42300
C167        C  0.18719425  0.27043458  0.27326889     0.01300
C168        C  0.15231763  0.24448710  0.30280730    -0.10600
C169        C  0.14621892  0.20911240  0.32512802     0.03500
C170        C  0.17567574  0.19910219  0.31863257     0.01200
C171        C  0.20763138  0.22175480  0.28487710    -0.10500
C172        C  0.21298647  0.25657323  0.26134020     0.03400
H173        H  0.13202543  0.25413292  0.31288858     0.16400
H174        H  0.23013923  0.21391361  0.27915707     0.16400
C175        C  0.24639577  0.27861091  0.22695749     0.38000
C176        C  0.11258090  0.18701653  0.35929261     0.38000
N177        N  0.27330533  0.29623839  0.19954157    -0.42300
N178        N  0.08569767  0.16942410  0.38673708    -0.42300
N179        N  0.14930243  0.13668940  0.87229364    -0.02000
C180        C  0.17999681  0.17446690  0.85492672     0.00600
C181        C  0.20800694  0.19411965  0.88759129    -0.22300
C182        C  0.19336571  0.16828845  0.92650150    -0.22500
C183        C  0.15697504  0.13370632  0.91633297     0.00500
H184        H  0.23362259  0.22575695  0.88518162     0.14200
H185        H  0.20609483  0.17536595  0.95948907     0.14300
N186        N  0.06566681  0.91927408  0.89242829    -0.02000
C187        C  0.07425135  0.39073045  0.88312529     0.00600
C188        C  0.07330291  0.37031664  0.92322206    -0.22300
C189        C  0.06513819  0.38734373  0.95828507    -0.22500
C190        C  0.06100077  0.91728954  0.93854837     0.00500
H191        H  0.08092998  0.34756721  0.92676116     0.14200
H192        H  0.06436144  0.38010183  0.99429043     0.14300
C193        C  0.17865237  0.36166234  0.78092059     0.04600
C194        C  0.17139553  0.32507380  0.76372845    -0.11600
C195        C  0.20066435  0.31454468  0.76640306     0.02100
C196        C  0.24071142  0.34497581  0.77631130    -0.10100
C197        C  0.25030241  0.38291210  0.79052522     0.04600
C198        C  0.21852658  0.38981896  0.79494513    -0.09500
H199        H  0.14231268  0.30297603  0.75097664     0.10200
H200        H  0.26380554  0.33782274  0.77725249     0.07700
H201        H  0.22449996  0.41616662  0.81239090     0.07500
N202        N  0.42894728  0.49521067  0.89531892    -0.02000
C203        C  0.39189856  0.48906574  0.88732308     0.00600
C204        C  0.37539589  0.49532025  0.92600000    -0.22300
C205        C  0.40263076  0.50500775  0.95910645    -0.22500
C206        C  0.43475115  0.50428229  0.93954507     0.00500
H207        H  0.34498812  0.48955459  0.93087705     0.14200
H208        H  0.39836479  0.50966619  0.99427264     0.14300
Zn209      Zn  0.10218095  0.02652576  0.01072599     1.49700
Zn210      Zn  0.04721256  0.06488253  0.00896487     1.49400
Zn211      Zn  0.00383286  0.46688087  0.01560258     1.49100
Zn212      Zn  0.04874768  0.01829550  0.59931304     1.49500
O213        O  0.05051725  0.01924312  0.53335715    -1.82700
O214        O  0.13395032  0.07521439  0.96582642    -0.73300
O215        O  0.49734561  0.54401156  0.97366137    -0.73100
O216        O  0.02246183  0.43891423  0.97594768    -0.72600
O217        O  0.09641935  0.10240694  0.96479710    -0.73300
O218        O  0.09049606  0.97758294  0.97748799    -0.72900
O219        O  0.46602372  0.47615556  0.97989541    -0.73500
O220        O  0.00473419  0.46288608  0.62827133    -0.72900
O221        O  0.54072402  0.09575875  0.55943766    -0.73700
O222        O  0.97211218  0.42692028  0.57020629    -0.73000
O223        O  0.03702612  0.05917518  0.62110234    -0.73500
O224        O  0.10233061  0.03111770  0.62246605    -0.73400
O225        O  0.13904344  0.03432717  0.56144968    -0.73200
C226        C  0.12757162  0.10208123  0.95084850     0.78600
C227        C  0.46795420  0.50838172  0.96552262     0.79100
C228        C  0.05776508  0.94624562  0.96518220     0.78000
C229        C  0.97647800  0.42977242  0.61281369     0.78400
C230        C  0.53561904  0.08833415  0.60254340     0.79500
C231        C  0.13466897  0.03541121  0.60426957     0.78600
Zn232      Zn  0.04573609  0.01487045  0.84966533     1.49700
Zn233      Zn  0.99337359  0.50791468  0.76484703     1.49400
Zn234      Zn  0.09235412  0.06560814  0.75628672     1.49100
Zn235      Zn  0.04732737  0.96712864  0.76619284     1.49500
O236        O  0.04449198  0.01385601  0.78390383    -1.82700
O237        O  0.99174948  0.50241630  0.87743662    -0.73300
O238        O  0.50732355  0.55789885  0.72355718    -0.73100
O239        O  0.12508779  0.10542304  0.80377600    -0.72600
O240        O  0.45535112  0.50035839  0.82006135    -0.73300
O241        O  0.09022659  0.07077027  0.86829034    -0.72900
O242        O  0.07553230  0.09555394  0.71532462    -0.73500
O243        O  0.09687804  0.98619905  0.72441184    -0.72900
O244        O  0.96221491  0.45833361  0.72764812    -0.73700
O245        O  0.12857804  0.05407516  0.71791218    -0.73000
O246        O  0.99819091  0.42941169  0.73093050    -0.73500
O247        O  0.05364253  0.93636245  0.81952290    -0.73400
O248        O  0.05723743  0.97359100  0.87614738    -0.73200
C249        C  0.45948159  0.49855386  0.86276545     0.78600
C250        C  0.54096944  0.08928562  0.70647693     0.79100
C251        C  0.11975552  0.10321436  0.84694764     0.78000
C252        C  0.12615212  0.02128826  0.70839692     0.78400
C253        C  0.96798716  0.43039478  0.71738134     0.79500
C254        C  0.05898161  0.94433781  0.86116771     0.78600
N255        N  0.16485454  0.03746227  0.63301920    -0.02000
C256        C  0.20096511  0.04274160  0.61887553     0.00600
C257        C  0.21581069  0.03108658  0.65430960    -0.22300
C258        C  0.18840022  0.01910837  0.69147160    -0.22500
C259        C  0.15793124  0.02410126  0.67750267     0.00500
H260        H  0.24571664  0.03547969  0.65468100     0.14200
H261        H  0.19196848  0.01078318  0.72563876     0.14300
N262        N  0.53147209  0.11509217  0.63131709    -0.02000
C263        C  0.52769606  0.14651135  0.61781836     0.00600
C264        C  0.53597962  0.17152498  0.65348775    -0.22300
C265        C  0.54375538  0.15436758  0.69015479    -0.22500
C266        C  0.53999100  0.11941604  0.67582177     0.00500
H267        H  0.53196549  0.19682106  0.65440218     0.14200
H268        H  0.54891422  0.16478475  0.72423727     0.14300
C269        C  0.41826806  0.17528964  0.52681156     0.04600
C270        C  0.37594532  0.14855913  0.52165639    -0.11600
C271        C  0.34965205  0.16286453  0.52167593     0.02100
C272        C  0.36715276  0.20526734  0.52232266    -0.10100
C273        C  0.40901323  0.23252508  0.52878892     0.04600
C274        C  0.43471759  0.21758712  0.52727681    -0.09500
H275        H  0.36302085  0.11603348  0.52241148     0.10200
H276        H  0.34707377  0.21635079  0.52361892     0.07700
H277        H  0.46710604  0.23842428  0.53152232     0.07500
N278        N  0.94738515  0.39599338  0.64411434    -0.02000
C279        C  0.91926255  0.35723448  0.63356610     0.00600
C280        C  0.89261393  0.33557315  0.67128054    -0.22300
C281        C  0.90536820  0.36149593  0.70616724    -0.22500
C282        C  0.93929395  0.39821160  0.68867760     0.00500
H283        H  0.36958163  0.30298022  0.67472318     0.14200
H284        H  0.89351618  0.35327834  0.74133904     0.14300
C285        C  0.42668785  0.33531620  0.59859725     0.01300
C286        C  0.44726488  0.31672390  0.61181526    -0.10600
C287        C  0.44458900  0.28519247  0.58796319     0.03500
C288        C  0.42245592  0.27286703  0.54797941     0.01200
C289        C  0.40590779  0.29519718  0.53201233    -0.10500
C290        C  0.40696367  0.32542352  0.55755268     0.03400
H291        H  0.96210298  0.32411883  0.64372340     0.16400
H292        H  0.38935513  0.28688458  0.50128378     0.16400
C293        C  0.38533479  0.34386074  0.54273629     0.38000
C294        C  0.46057783  0.26318313  0.60921764     0.38000
N295        N  0.36797131  0.35864979  0.53092547    -0.42300
N296        N  0.47339399  0.24565498  0.62649577    -0.42300
C297        C  0.49949734  0.14413186  0.58356247     0.01300
C298        C  0.45754662  0.12028664  0.59670616    -0.10600
C299        C  0.42997491  0.12800539  0.57703189     0.03500
C300        C  0.44397143  0.15932637  0.54147630     0.01200
C301        C  0.48543263  0.18006743  0.52507789    -0.10500
C302        C  0.51319442  0.17315999  0.54623182     0.03400
H303        H  0.44699752  0.09848161  0.62607603     0.16400
H304        H  0.49678831  0.20365158  0.49751114     0.16400
C305        C  0.55597843  0.19764991  0.53073958     0.38000
C306        C  0.38888257  0.10642808  0.59827034     0.38000
N307        N  0.59026388  0.21714176  0.51813745    -0.42300
N308        N  0.35600004  0.08896576  0.61540934    -0.42300
C309        C  0.22994987  0.07438919  0.58352524     0.01300
C310        C  0.24473296  0.06362624  0.54635401    -0.10600
C311        C  0.28118579  0.09329582  0.52109686     0.03500
C312        C  0.30478851  0.13378733  0.53515427     0.01200
C313        C  0.28720254  0.14481434  0.56947979    -0.10500
C314        C  0.24989999  0.11588172  0.59276633     0.03400
H315        H  0.22882813  0.03183199  0.53834109     0.16400
H316        H  0.30399029  0.17538158  0.58135765     0.16400
C317        C  0.23507757  0.12892911  0.62951460     0.38000
C318        C  0.29373459  0.08140971  0.48131733     0.38000
N319        N  0.22319927  0.13942919  0.65885066    -0.42300
N320        N  0.30349540  0.07189996  0.44916097    -0.42300
C321        C  0.29158382  0.41202229  0.80818839     0.01300
C322        C  0.31009436  0.39596524  0.83412943    -0.10600
C323        C  0.34638643  0.42145024  0.85533514     0.03500
C324        C  0.36466324  0.46411399  0.85207066     0.01200
C325        C  0.34775378  0.48064161  0.82458658    -0.10500
C326        C  0.31197988  0.45522235  0.80209910     0.03400
H327        H  0.29500778  0.36316784  0.84050683     0.16400
H328        H  0.36134095  0.51345084  0.82268348     0.16400
C329        C  0.29655678  0.47450590  0.77413878     0.37600
C330        C  0.36189397  0.40274444  0.88419060     0.38000
N331        N  0.28420011  0.49018913  0.75211348    -0.42300
N332        N  0.37425942  0.38775677  0.90736177    -0.42300
C333        C  0.09250886  0.38677525  0.84012524     0.01300
C334        C  0.07794223  0.34693485  0.82827517    -0.10600
C335        C  0.10335160  0.33754036  0.80480664     0.03500
C336        C  0.14479870  0.36916455  0.79115151     0.01200
C337        C  0.15588646  0.40997664  0.79514099    -0.10500
C338        C  0.13102058  0.41892485  0.82083306     0.03400
H339        H  0.04782890  0.32212564  0.84217775     0.16400
H340        H  0.18584666  0.43530146  0.78179519     0.16400
C341        C  0.14810870  0.46074183  0.83175098     0.38000
C342        C  0.08547364  0.29466572  0.79896294     0.38000
N343        N  0.16200328  0.49426178  0.84066123    -0.42300
N344        N  0.06950054  0.26000541  0.79429644    -0.42300
C345        C  0.18721578  0.27044107  0.77324772     0.01300
C346        C  0.15233509  0.24450600  0.80278568    -0.10600
C347        C  0.14620963  0.20911711  0.82509883     0.03500
C348        C  0.17564659  0.19908125  0.81860120     0.01200
C349        C  0.20760634  0.22172316  0.78484729    -0.10500
C350        C  0.21298746  0.25655603  0.76131634     0.03400
H351        H  0.13205866  0.25417149  0.81287315     0.16400
H352        H  0.23010103  0.21386346  0.77912701     0.16400
C353        C  0.24640075  0.27858143  0.72693650     0.38000
C354        C  0.11256861  0.18703267  0.85926166     0.38000
N355        N  0.27331355  0.29619802  0.69952265    -0.42300
N356        N  0.08568340  0.16944921  0.88670524    -0.42300
N357        N  0.14933136  0.63671118  0.37230729    -0.02000
C358        C  0.18002381  0.67449290  0.35494895     0.00600
C359        C  0.20803912  0.69413442  0.38761177    -0.22300
C360        C  0.19340318  0.66829118  0.42651286    -0.22500
C361        C  0.15701016  0.63371297  0.41634114     0.00500
H362        H  0.23365424  0.72577159  0.38520991     0.14200
H363        H  0.20613589  0.67535944  0.45949915     0.14300
N364        N  0.06564138  0.41927622  0.39242505    -0.02000
C365        C  0.07419272  0.89070702  0.38313128     0.00600
C366        C  0.07318905  0.87025526  0.42322387    -0.22300
C367        C  0.06502551  0.88728296  0.45828725    -0.22500
C368        C  0.06094546  0.41726992  0.43854276     0.00500
H369        H  0.08078442  0.84748202  0.42676350     0.14200
H370        H  0.06421509  0.88001665  0.49429229     0.14300
C371        C  0.17865102  0.86168170  0.28094031     0.04600
C372        C  0.17139284  0.82509345  0.26374368    -0.11600
C373        C  0.20066155  0.81456406  0.26641083     0.02100
C374        C  0.24071058  0.84499570  0.27630747    -0.10100
C375        C  0.25030180  0.88292853  0.29053018     0.04600
C376        C  0.21852791  0.88983637  0.29496147    -0.09500
H377        H  0.14231020  0.80299426  0.25099219     0.10200
H378        H  0.26380565  0.83784323  0.27724202     0.07700
H379        H  0.22450693  0.91618159  0.31241554     0.07500
N380        N  0.42893382  0.99518588  0.39534801    -0.02000
C381        C  0.39187995  0.98903196  0.38736253     0.00600
C382        C  0.37536109  0.99524398  0.42605751    -0.22300
C383        C  0.40259090  0.00491337  0.45916492    -0.22500
C384        C  0.43472448  0.00422124  0.43958468     0.00500
H385        H  0.34494616  0.98945853  0.43094282     0.14200
H386        H  0.39831467  0.00953925  0.49434087     0.14300
Zn387      Zn  0.10218841  0.52651495  0.51072584     1.49700
Zn388      Zn  0.04724209  0.56489389  0.50896648     1.49400
Zn389      Zn  0.00382786  0.96689173  0.51561650     1.49100
Zn390      Zn  0.04874361  0.51831035  0.09930265     1.49500
O391        O  0.05050559  0.51924372  0.03334699    -1.82700
O392        O  0.13397346  0.57521114  0.46582928    -0.73300
O393        O  0.49733619  0.04395545  0.47365716    -0.73100
O394        O  0.02243669  0.93891672  0.47596071    -0.72600
O395        O  0.09645568  0.60241808  0.46480700    -0.73300
O396        O  0.09047502  0.47756681  0.47747848    -0.72900
O397        O  0.46599578  0.97609781  0.47993850    -0.73500
O398        O  0.00472577  0.96289737  0.12827043    -0.72900
O399        O  0.54074003  0.59581016  0.05946083    -0.73700
O400        O  0.97211810  0.92691261  0.07020908    -0.73000
O401        O  0.03702646  0.55919280  0.12109517    -0.73500
O402        O  0.10233065  0.53114224  0.12245275    -0.73400
O403        O  0.13904711  0.53436473  0.06143354    -0.73200
C404        C  0.12760353  0.60208593  0.45085559     0.78600
C405        C  0.46793257  0.00832300  0.46554876     0.79100
C406        C  0.05773359  0.44623615  0.46517990     0.78000
C407        C  0.97647781  0.92977633  0.11281745     0.78400
C408        C  0.53562998  0.58837734  0.10256657     0.79500
C409        C  0.13467402  0.53544878  0.10425299     0.78600
Zn410      Zn  0.04575624  0.51490448  0.34966303     1.49700
Zn411      Zn  0.99337793  0.00793316  0.26485358     1.49400
Zn412      Zn  0.09237383  0.56564926  0.25628487     1.49100
Zn413      Zn  0.04735287  0.46717028  0.26618512     1.49500
O414        O  0.04451251  0.51389377  0.28389996    -1.82700
O415        O  0.99177046  0.00245743  0.37744506    -0.73300
O416        O  0.50731907  0.05792701  0.22359023    -0.73100
O417        O  0.12511079  0.60546101  0.30378105    -0.72600
O418        O  0.45534403  0.00036392  0.32008454    -0.73300
O419        O  0.09025296  0.57079728  0.36829268    -0.72900
O420        O  0.07554527  0.59559189  0.21532593    -0.73500
O421        O  0.09690235  0.48624267  0.22440279    -0.72900
O422        O  0.96221895  0.95834601  0.22765892    -0.73700
O423        O  0.12859472  0.55411781  0.21789719    -0.73000
O424        O  0.99820949  0.92943963  0.23093182    -0.73500
O425        O  0.05366073  0.43639888  0.31951391    -0.73400
O426        O  0.05723986  0.47361241  0.37614755    -0.73200
C427        C  0.45947477  0.99854947  0.36278728     0.78600
C428        C  0.54094460  0.58929619  0.20651010     0.79100
C429        C  0.11978126  0.60324422  0.34695430     0.78000
C430        C  0.12617122  0.52133190  0.20838151     0.78400
C431        C  0.96799944  0.93041336  0.21738746     0.79500
C432        C  0.05898426  0.44436069  0.36116342     0.78600
N433        N  0.16486722  0.53751173  0.13299798    -0.02000
C434        C  0.20097185  0.54278253  0.11884423     0.00600
C435        C  0.21581371  0.53111290  0.15426864    -0.22300
C436        C  0.18840822  0.51913603  0.19143545    -0.22500
C437        C  0.15794624  0.52414499  0.17747916     0.00500
H438        H  0.24571517  0.53549510  0.15463150     0.14200
H439        H  0.19197530  0.51079973  0.22559760     0.14300
N440        N  0.53147322  0.61512548  0.13134919    -0.02000
C441        C  0.52767738  0.64653472  0.11786481     0.00600
C442        C  0.53592055  0.67152189  0.15355284    -0.22300
C443        C  0.54368788  0.65435586  0.19021757    -0.22500
C444        C  0.53996223  0.61942774  0.17586376     0.00500
H445        H  0.53188036  0.69680027  0.15447901     0.14200
H446        H  0.54881456  0.66474974  0.22431036     0.14300
C447        C  0.41828019  0.67533300  0.02683489     0.04600
C448        C  0.37595996  0.64860536  0.02166479    -0.11600
C449        C  0.34966947  0.66291345  0.02167264     0.02100
C450        C  0.36717099  0.70531592  0.02232028    -0.10100
C451        C  0.40902868  0.73257068  0.02880158     0.04600
C452        C  0.43473143  0.71763027  0.02730780    -0.09500
H453        H  0.36303355  0.61607909  0.02242000     0.10200
H454        H  0.34709236  0.71640010  0.02360878     0.07700
H455        H  0.46711718  0.73846377  0.03157225     0.07500
N456        N  0.94738879  0.89600079  0.14412464    -0.02000
C457        C  0.91927237  0.85723636  0.13358694     0.00600
C458        C  0.89263697  0.83557405  0.17130994    -0.22300
C459        C  0.90539223  0.86150251  0.20619098    -0.22500
C460        C  0.93930547  0.89822266  0.18869008     0.00500
H461        H  0.36955800  0.80304327  0.17468413     0.14200
H462        H  0.89355078  0.85328684  0.24136628     0.14300
C463        C  0.42668688  0.83536707  0.09858171     0.01300
C464        C  0.44725289  0.81676908  0.11182342    -0.10600
C465        C  0.44457815  0.78523183  0.08798532     0.03500
C466        C  0.42246626  0.77291232  0.04798725     0.01200
C467        C  0.40593034  0.79524738  0.03199750    -0.10500
C468        C  0.40697802  0.82547492  0.05752741     0.03400
H469        H  0.96211669  0.82412327  0.14372102     0.16400
H470        H  0.38939098  0.78693609  0.00126015     0.16400
C471        C  0.38535312  0.84391073  0.04269091     0.38000
C472        C  0.46053783  0.76320690  0.10927014     0.38000
N473        N  0.36799090  0.85869647  0.03086343    -0.42300
N474        N  0.47332811  0.74566502  0.12657512    -0.42300
C475        C  0.49948458  0.64415223  0.08360115     0.01300
C476        C  0.45753399  0.62031857  0.09674644    -0.10600
C477        C  0.42997017  0.62804520  0.07706725     0.03500
C478        C  0.44397525  0.65936369  0.04150752     0.01200
C479        C  0.48543519  0.68009293  0.02510833    -0.10500
C480        C  0.51318870  0.67317423  0.04626389     0.03400
H481        H  0.44698012  0.59851762  0.12612120     0.16400
H482        H  0.49679596  0.70367485  0.99753818     0.16400
C483        C  0.55597157  0.69764382  0.03076491     0.38000
C484        C  0.38887750  0.60647889  0.09830348     0.38000
N485        N  0.59025594  0.71711676  0.01815705    -0.42300
N486        N  0.35599467  0.58902474  0.11544076    -0.42300
C487        C  0.22996067  0.57443691  0.08350108     0.01300
C488        C  0.24474330  0.56368011  0.04632315    -0.10600
C489        C  0.28120082  0.59335155  0.02107436     0.03500
C490        C  0.30480507  0.63383859  0.03514313     0.01200
C491        C  0.28722047  0.64486126  0.06947442    -0.10500
C492        C  0.24991645  0.61592690  0.09275675     0.03400
H493        H  0.22883583  0.53188825  0.03830040     0.16400
H494        H  0.30401186  0.67542563  0.08136067     0.16400
C495        C  0.23510089  0.62896842  0.12951803     0.38000
C496        C  0.29375599  0.58147151  0.98129445     0.38000
N497        N  0.22322990  0.63946464  0.15886552    -0.42300
N498        N  0.30352361  0.57196768  0.94913822    -0.42300
C499        C  0.29157926  0.91202662  0.30820322     0.01300
C500        C  0.31006768  0.89595366  0.33415704    -0.10600
C501        C  0.34635474  0.92142507  0.35537450     0.03500
C502        C  0.36465251  0.96409202  0.35210175     0.01200
C503        C  0.34776360  0.98063510  0.32460772    -0.10500
C504        C  0.31198963  0.95522781  0.30211531     0.03400
H505        H  0.29496479  0.86315427  0.34053694     0.16400
H506        H  0.36136390  0.01344674  0.32270466     0.16400
C507        C  0.29657767  0.97452369  0.27415740     0.37600
C508        C  0.36182982  0.90270300  0.38425657     0.38000
N509        N  0.28422997  0.99021758  0.25213530    -0.42300
N510        N  0.37416588  0.88770080  0.40745172    -0.42300
C511        C  0.09249019  0.88677630  0.34014915     0.01300
C512        C  0.07792352  0.84694579  0.32826234    -0.10600
C513        C  0.10334251  0.83755921  0.30480142     0.03500
C514        C  0.14479823  0.86918505  0.29117962     0.01200
C515        C  0.15589150  0.90999516  0.29520731    -0.10500
C516        C  0.13102106  0.91893175  0.32090763     0.03400
H517        H  0.04779823  0.82213333  0.34213131     0.16400
H518        H  0.18585868  0.93532578  0.28188748     0.16400
C519        C  0.14812525  0.96073426  0.33189841     0.38000
C520        C  0.08546276  0.79468780  0.29893467     0.38000
N521        N  0.16203428  0.99424046  0.34087430    -0.42300
N522        N  0.06949134  0.76003020  0.29425165    -0.42300
C523        C  0.18721426  0.77046241  0.27327287     0.01300
C524        C  0.15235248  0.74454288  0.30284204    -0.10600
C525        C  0.14624163  0.70916493  0.32516865     0.03500
C526        C  0.17566702  0.69911712  0.31864181     0.01200
C527        C  0.20760753  0.72174533  0.28486469    -0.10500
C528        C  0.21297939  0.75657238  0.26132945     0.03400
H529        H  0.13208375  0.75421524  0.31294058     0.16400
H530        H  0.23009571  0.71387932  0.27912699     0.16400
C531        C  0.24638062  0.77859011  0.22693458     0.38000
C532        C  0.11263315  0.68710726  0.35937305     0.38000
N533        N  0.27328519  0.79620210  0.19951060    -0.42300
N534        N  0.08577638  0.66954721  0.38685254    -0.42300
N535        N  0.14931957  0.63668902  0.87229485    -0.02000
C536        C  0.18001260  0.67446559  0.85492691     0.00600
C537        C  0.20802258  0.69412083  0.88759087    -0.22300
C538        C  0.19338033  0.66829174  0.92650315    -0.22500
C539        C  0.15698945  0.63370903  0.91633573     0.00500
H540        H  0.23363881  0.72575796  0.88517915     0.14200
H541        H  0.20610859  0.67537120  0.95949084     0.14300
N542        N  0.06569941  0.41930463  0.89242550    -0.02000
C543        C  0.07418910  0.89067900  0.88312468     0.00600
C544        C  0.07323486  0.87026149  0.92322206    -0.22300
C545        C  0.06509952  0.88730827  0.95828721    -0.22500
C546        C  0.06101608  0.41730936  0.93854518     0.00500
H547        H  0.08083945  0.84749514  0.92675985     0.14200
H548        H  0.06432254  0.88006508  0.99429186     0.14300
C549        C  0.17858849  0.86160887  0.78094733     0.04600
C550        C  0.17134968  0.82503072  0.76374629    -0.11600
C551        C  0.20063085  0.81451803  0.76642086     0.02100
C552        C  0.24066971  0.84495642  0.77634792    -0.10100
C553        C  0.25024065  0.88288044  0.79058278     0.04600
C554        C  0.21845199  0.88976940  0.79499643    -0.09500
H555        H  0.14227046  0.80292961  0.75098698     0.10200
H556        H  0.26377353  0.83781734  0.77728492     0.07700
H557        H  0.22440354  0.91610535  0.81245186     0.07500
N558        N  0.42892423  0.99517791  0.89533473    -0.02000
C559        C  0.39187418  0.98903650  0.88734848     0.00600
C560        C  0.37538003  0.99529424  0.92603056    -0.22300
C561        C  0.40261886  0.00497862  0.95913053    -0.22500
C562        C  0.43473365  0.00424914  0.93956060     0.00500
H563        H  0.34497495  0.98953380  0.93091470     0.14200
H564        H  0.39836040  0.00964034  0.99429768     0.14300
Zn565      Zn  0.10218543  0.52653458  0.01073228     1.49700
Zn566      Zn  0.04722131  0.56489713  0.00896439     1.49400
Zn567      Zn  0.00382940  0.96686531  0.01560738     1.49100
Zn568      Zn  0.04874518  0.51828983  0.59930402     1.49500
O569        O  0.05051459  0.51923393  0.53334958    -1.82700
O570        O  0.13395653  0.57521789  0.96583103    -0.73300
O571        O  0.49733233  0.04398691  0.97366278    -0.73100
O572        O  0.02245673  0.93890053  0.97595469    -0.72600
O573        O  0.09643478  0.60242064  0.96480147    -0.73300
O574        O  0.09050022  0.47759477  0.97749403    -0.72900
O575        O  0.46601877  0.97613179  0.97989977    -0.73500
O576        O  0.00473307  0.96289451  0.62827999    -0.72900
O577        O  0.54072042  0.59574923  0.55943091    -0.73700
O578        O  0.97210621  0.92693703  0.57021153    -0.73000
O579        O  0.03702612  0.55917431  0.62109276    -0.73500
O580        O  0.10233008  0.53111284  0.62245160    -0.73400
O581        O  0.13904118  0.53432026  0.56143400    -0.73200
C582        C  0.12758330  0.60208815  0.95085244     0.78600
C583        C  0.46794285  0.00835477  0.96552877     0.79100
C584        C  0.05777185  0.44626034  0.96518000     0.78000
C585        C  0.97647170  0.92978562  0.61281985     0.78400
C586        C  0.53561612  0.58832774  0.60253669     0.79500
C587        C  0.13466782  0.53540562  0.60425391     0.78600
Zn588      Zn  0.04575122  0.51488295  0.84965125     1.49700
Zn589      Zn  0.99335167  0.00789852  0.76487415     1.49400
Zn590      Zn  0.09237573  0.56561841  0.75628182     1.49100
Zn591      Zn  0.04733742  0.46713535  0.76618227     1.49500
O592        O  0.04450821  0.51386717  0.78388823    -1.82700
O593        O  0.99172895  0.00239807  0.87745403    -0.73300
O594        O  0.50730880  0.05789535  0.72358423    -0.73100
O595        O  0.12511032  0.60542362  0.80377662    -0.72600
O596        O  0.45533026  0.00033744  0.82007351    -0.73300
O597        O  0.09023775  0.57077594  0.86828745    -0.72900
O598        O  0.07556575  0.59557748  0.71532566    -0.73500
O599        O  0.09687894  0.48620197  0.72439073    -0.72900
O600        O  0.96220257  0.95832552  0.72766873    -0.73700
O601        O  0.12859315  0.55408021  0.71790501    -0.73000
O602        O  0.99818850  0.92941326  0.73093213    -0.73500
O603        O  0.05367358  0.43638473  0.81951582    -0.73400
O604        O  0.05725380  0.47360882  0.87613840    -0.73200
C605        C  0.45946197  0.99853111  0.86277644     0.78600
C606        C  0.54098841  0.58929397  0.70646503     0.79100
C607        C  0.11977302  0.60321593  0.84694747     0.78000
C608        C  0.12615808  0.52129061  0.70838160     0.78400
C609        C  0.96798147  0.93039379  0.71739074     0.79500
C610        C  0.05900916  0.44436173  0.86116089     0.78600
N611        N  0.16485455  0.53745833  0.63300270    -0.02000
C612        C  0.20096844  0.54274510  0.61885979     0.00600
C613        C  0.21581821  0.53109592  0.65429487    -0.22300
C614        C  0.18840777  0.51911578  0.69145703    -0.22500
C615        C  0.15793387  0.52409996  0.67748653     0.00500
H616        H  0.24572746  0.53549736  0.65466776     0.14200
H617        H  0.19197996  0.51079724  0.72562550     0.14300
N618        N  0.53148196  0.61509557  0.63130712    -0.02000
C619        C  0.52774319  0.64653700  0.61779859     0.00600
C620        C  0.53607269  0.67157349  0.65345455    -0.22300
C621        C  0.54383831  0.65440872  0.69012351    -0.22500
C622        C  0.54002026  0.61942887  0.67580570     0.00500
H623        H  0.53209585  0.69689391  0.65436160     0.14200
H624        H  0.54902815  0.66484330  0.72419771     0.14300
C625        C  0.41828842  0.67532540  0.52684386     0.04600
C626        C  0.37596376  0.64858999  0.52170550    -0.11600
C627        C  0.34966857  0.66289304  0.52171759     0.02100
C628        C  0.36716665  0.70529545  0.52235901    -0.10100
C629        C  0.40903109  0.73255893  0.52880350     0.04600
C630        C  0.43473736  0.71762358  0.52728561    -0.09500
H631        H  0.36304113  0.61606445  0.52247505     0.10200
H632        H  0.34708618  0.71637668  0.52365758     0.07700
H633        H  0.46712910  0.73846521  0.53150759     0.07500
N634        N  0.94737539  0.89600616  0.64411819    -0.02000
C635        C  0.91925558  0.85724915  0.63356562     0.00600
C636        C  0.89261418  0.83557745  0.67128176    -0.22300
C637        C  0.90537053  0.86149318  0.70617480    -0.22500
C638        C  0.93928950  0.89821427  0.68868586     0.00500
H639        H  0.36960244  0.80299124  0.67472778     0.14200
H640        H  0.89352561  0.85326783  0.74134876     0.14300
C641        C  0.42669930  0.83534802  0.59859394     0.01300
C642        C  0.44730200  0.81677978  0.61179757    -0.10600
C643        C  0.44463642  0.78525488  0.58794322     0.03500
C644        C  0.42248008  0.77290828  0.54797641     0.01200
C645        C  0.40591359  0.79522342  0.53201652    -0.10500
C646        C  0.40696562  0.82544726  0.55755673     0.03400
H647        H  0.96216713  0.82420736  0.64367248     0.16400
H648        H  0.38935003  0.78690019  0.50129624     0.16400
C649        C  0.38532840  0.84387751  0.54274702     0.38000
C650        C  0.46066669  0.76327746  0.60917887     0.38000
N651        N  0.36796123  0.85866429  0.53094218    -0.42300
N652        N  0.47351933  0.74577777  0.62644173    -0.42300
C653        C  0.49953205  0.64416908  0.58356558     0.01300
C654        C  0.45758585  0.62033643  0.59673370    -0.10600
C655        C  0.43001142  0.62805996  0.57707593     0.03500
C656        C  0.44399762  0.65936935  0.54150899     0.01200
C657        C  0.48545333  0.68010294  0.52509257    -0.10500
C658        C  0.51321987  0.67319435  0.54623256     0.03400
H659        H  0.44704466  0.59853743  0.62610827     0.16400
H660        H  0.49680174  0.70368106  0.49751955     0.16400
C661        C  0.55599941  0.69767980  0.53072137     0.38000
C662        C  0.38892966  0.60650121  0.59834102     0.38000
N663        N  0.59028086  0.71716997  0.51810299    -0.42300
N664        N  0.35605587  0.58905481  0.61550188    -0.42300
C665        C  0.22995219  0.57439932  0.58351501     0.01300
C666        C  0.24475297  0.56364631  0.54635141    -0.10600
C667        C  0.28121118  0.59332351  0.52110946     0.03500
C668        C  0.30480221  0.63381205  0.53517703     0.01200
C669        C  0.28719820  0.64483046  0.56949094    -0.10500
C670        C  0.24988875  0.61589003  0.59276060     0.03400
H671        H  0.22885836  0.53185342  0.53833432     0.16400
H672        H  0.30397618  0.67539659  0.58137344     0.16400
C673        C  0.23504421  0.62892637  0.62949860     0.38000
C674        C  0.29377975  0.58144812  0.48133623     0.38000
N675        N  0.22314617  0.63941548  0.65882651    -0.42300
N676        N  0.30355839  0.57194852  0.44918488    -0.42300
C677        C  0.29151828  0.91199587  0.80825633     0.01300
C678        C  0.31004695  0.89594067  0.83416780    -0.10600
C679        C  0.34635155  0.92142534  0.85535396     0.03500
C680        C  0.36462599  0.96408871  0.85210126     0.01200
C681        C  0.34769130  0.98061462  0.82465645    -0.10500
C682        C  0.31190249  0.95519633  0.80219067     0.03400
H683        H  0.29496786  0.86314349  0.84053554     0.16400
H684        H  0.36127095  0.01342242  0.82277051     0.16400
C685        C  0.29645340  0.97448323  0.77428010     0.37600
C686        C  0.36187541  0.90271796  0.88418029     0.38000
N687        N  0.28407505  0.99016997  0.75229848    -0.42300
N688        N  0.37425294  0.88772821  0.90732859    -0.42300
C689        C  0.09243215  0.88670797  0.84012153     0.01300
C690        C  0.07787360  0.84686170  0.82829674    -0.10600
C691        C  0.10328471  0.83746902  0.80482839     0.03500
C692        C  0.14472504  0.86909820  0.79115840     0.01200
C693        C  0.15579987  0.90990837  0.79511733    -0.10500
C694        C  0.13093005  0.91885832  0.82079745     0.03400
H695        H  0.04776817  0.82205091  0.84221625     0.16400
H696        H  0.18575572  0.93523207  0.78175817     0.16400
C697        C  0.14800230  0.96068479  0.83166297     0.38000
C698        C  0.08541777  0.79459461  0.79899361     0.38000
N699        N  0.16188347  0.99421434  0.84052503    -0.42300
N700        N  0.06945233  0.75993453  0.79433092    -0.42300
C701        C  0.18720195  0.77041860  0.77324182     0.01300
C702        C  0.15230557  0.74445500  0.80274812    -0.10600
C703        C  0.14619248  0.70906990  0.82505674     0.03500
C704        C  0.17566160  0.69907251  0.81859295     0.01200
C705        C  0.20763769  0.72173921  0.78486245    -0.10500
C706        C  0.21300229  0.75656299  0.76132852     0.03400
H707        H  0.13200442  0.75409255  0.81281615     0.16400
H708        H  0.23015283  0.71390499  0.77916234     0.16400
C709        C  0.24642590  0.77860808  0.72696337     0.38000
C710        C  0.11252087  0.68694656  0.85917853     0.38000
N711        N  0.27334647  0.79624009  0.69956081    -0.42300
N712        N  0.08560864  0.66932993  0.88658615    -0.42300
N713        N  0.64932662  0.13670087  0.37233403    -0.02000
C714        C  0.68002309  0.17448258  0.35498214     0.00600
C715        C  0.70803813  0.19411631  0.38764733    -0.22300
C716        C  0.69339848  0.16826666  0.42654355    -0.22500
C717        C  0.65700306  0.13369396  0.41636641     0.00500
H718        H  0.73365786  0.22575128  0.38524961     0.14200
H719        H  0.70613113  0.17532690  0.45953054     0.14300
N720        N  0.56568797  0.91930500  0.39241025    -0.02000
C721        C  0.57416452  0.39067285  0.38309842     0.00600
C722        C  0.57315760  0.37021067  0.42318462    -0.22300
C723        C  0.56500968  0.38724100  0.45825745    -0.22500
C724        C  0.56096741  0.91727393  0.43852802     0.00500
H725        H  0.58073783  0.34742547  0.42671353     0.14200
H726        H  0.56419626  0.37996432  0.49426024     0.14300
C727        C  0.67861953  0.36164788  0.28094631     0.04600
C728        C  0.67137836  0.32506567  0.26375303    -0.11600
C729        C  0.70065577  0.31454921  0.26643613     0.02100
C730        C  0.74069739  0.34498916  0.27634840    -0.10100
C731        C  0.75027087  0.38291540  0.29057615     0.04600
C732        C  0.71848521  0.38980763  0.29499151    -0.09500
H733        H  0.64229955  0.30296106  0.25099337     0.10200
H734        H  0.76379983  0.33784777  0.27728796     0.07700
H735        H  0.72444259  0.41614396  0.31244834     0.07500
N736        N  0.92893637  0.49520149  0.39534671    -0.02000
C737        C  0.89188296  0.48905301  0.38736740     0.00600
C738        C  0.87538342  0.49529579  0.42605598    -0.22300
C739        C  0.90262377  0.50497939  0.45915353    -0.22500
C740        C  0.93474431  0.50426484  0.43957431     0.00500
H741        H  0.84497391  0.48952374  0.43094555     0.14200
H742        H  0.89836235  0.50962865  0.49432444     0.14300
Zn743      Zn  0.60217797  0.02649274  0.51073963     1.49700
Zn744      Zn  0.54722454  0.06485686  0.50896959     1.49400
Zn745      Zn  0.50381399  0.46682628  0.51563827     1.49100
Zn746      Zn  0.54874375  0.01830287  0.09930987     1.49500
O747        O  0.55050927  0.01923863  0.03335461    -1.82700
O748        O  0.63396806  0.07519300  0.46585361    -0.73300
O749        O  0.99735213  0.54399640  0.47365618    -0.73100
O750        O  0.52242992  0.43886270  0.47597804    -0.72600
O751        O  0.59643811  0.10238542  0.46481491    -0.73300
O752        O  0.59047207  0.97755758  0.47747871    -0.72900
O753        O  0.96601718  0.47613917  0.47991653    -0.73500
O754        O  0.50472982  0.46291323  0.12828708    -0.72900
O755        O  0.04072105  0.09579397  0.05943599    -0.73700
O756        O  0.47210582  0.42694462  0.07022223    -0.73000
O757        O  0.53703147  0.05919101  0.12110223    -0.73500
O758        O  0.60232826  0.03112808  0.12245959    -0.73400
O759        O  0.63904654  0.03434569  0.06144431    -0.73200
C760        C  0.62759348  0.10206255  0.45087441     0.78600
C761        C  0.96795221  0.50836541  0.46553687     0.79100
C762        C  0.55773619  0.94622312  0.46517737     0.78000
C763        C  0.47646992  0.42980123  0.11283123     0.78400
C764        C  0.03561844  0.08836854  0.10254205     0.79500
C765        C  0.63467093  0.03543050  0.10426378     0.78600
Zn766      Zn  0.54575646  0.01490287  0.34966649     1.49700
Zn767      Zn  0.49335210  0.50792325  0.26489789     1.49400
Zn768      Zn  0.59237959  0.06565379  0.25630273     1.49100
Zn769      Zn  0.54734521  0.96717131  0.26618241     1.49500
O770        O  0.54451225  0.01389697  0.28390298    -1.82700
O771        O  0.49173347  0.50241169  0.37747565    -0.73300
O772        O  0.00730330  0.55791313  0.22359653    -0.73100
O773        O  0.62511255  0.10546022  0.30380242    -0.72600
O774        O  0.95533267  0.50035135  0.32008249    -0.73300
O775        O  0.59024453  0.07079251  0.36830715    -0.72900
O776        O  0.57556218  0.09560196  0.21534062    -0.73500
O777        O  0.59688540  0.98624450  0.22439081    -0.72900
O778        O  0.46220288  0.45835073  0.22769099    -0.73700
O779        O  0.62860415  0.05412344  0.21792636    -0.73000
O780        O  0.49820108  0.42945126  0.23093410    -0.73500
O781        O  0.55368495  0.93641585  0.31950521    -0.73400
O782        O  0.55725810  0.97362306  0.37614329    -0.73200
C783        C  0.95947115  0.49855291  0.36278473     0.78600
C784        C  0.04098231  0.08931444  0.20647508     0.79100
C785        C  0.61977731  0.10323951  0.34697483     0.78000
C786        C  0.62616794  0.02133530  0.20839301     0.78400
C787        C  0.46798770  0.43042506  0.21740289     0.79500
C788        C  0.55901487  0.94438016  0.36115383     0.78600
N789        N  0.66486229  0.03749535  0.13301413    -0.02000
C790        C  0.70097855  0.04278628  0.11887375     0.00600
C791        C  0.71583391  0.03114889  0.15431364    -0.22300
C792        C  0.68842533  0.01917328  0.19147631    -0.22500
C793        C  0.65794668  0.02414779  0.17750117     0.00500
H794        H  0.74574588  0.03555645  0.15468834     0.14200
H795        H  0.69200099  0.01086329  0.22564757     0.14300
N796        N  0.03148194  0.11513063  0.13132236    -0.02000
C797        C  0.02772781  0.14656567  0.11782980     0.00600
C798        C  0.03603619  0.17158458  0.15349943    -0.22300
C799        C  0.04380337  0.15441489  0.19016121    -0.22500
C800        C  0.04000881  0.11945071  0.17582534     0.00500
H801        H  0.03204240  0.19689324  0.15441924     0.14200
H802        H  0.04897751  0.16483416  0.22424250     0.14300
C803        C  0.91828601  0.17535638  0.02684597     0.04600
C804        C  0.87596200  0.14862032  0.02170557    -0.11600
C805        C  0.84966780  0.16292421  0.02170849     0.02100
C806        C  0.86716597  0.20532715  0.02234076    -0.10100
C807        C  0.90902970  0.23259061  0.02878713     0.04600
C808        C  0.93473564  0.21765491  0.02727936    -0.09500
H809        H  0.86303801  0.11609346  0.02248477     0.10200
H810        H  0.84708519  0.21640848  0.02363606     0.07700
H811        H  0.96712626  0.23849663  0.03150825     0.07500
N812        N  0.44737441  0.39602702  0.14413581    -0.02000
C813        C  0.41925693  0.35726650  0.13359278     0.00600
C814        C  0.39262053  0.33559879  0.17131340    -0.22300
C815        C  0.40537773  0.36152127  0.20619992    -0.22500
C816        C  0.43929258  0.39824195  0.18870300     0.00500
H817        H  0.86960501  0.30303068  0.17468856     0.14200
H818        H  0.39353763  0.35330057  0.24137585     0.14300
C819        C  0.92670473  0.33538947  0.09856138     0.01300
C820        C  0.94729849  0.31681451  0.11177546    -0.10600
C821        C  0.94462390  0.28528099  0.08793169     0.03500
C822        C  0.92247784  0.27293973  0.04795785     0.01200
C823        C  0.90592088  0.29526047  0.03198703    -0.10500
C824        C  0.90697464  0.32548816  0.05752147     0.03400
H825        H  0.46217063  0.32422722  0.14370323     0.16400
H826        H  0.88936145  0.28693750  0.00126388     0.16400
C827        C  0.88533988  0.34391894  0.04270425     0.38000
C828        C  0.96062444  0.26328422  0.10918993     0.38000
N829        N  0.86797313  0.35870416  0.03089226    -0.42300
N830        N  0.97344996  0.24576682  0.12647272    -0.42300
C831        C  0.99951926  0.14419910  0.08359531     0.01300
C832        C  0.95757329  0.12037477  0.09676596    -0.10600
C833        C  0.93000297  0.12810100  0.07710274     0.03500
C834        C  0.94399225  0.15940179  0.04152525     0.01200
C835        C  0.98544792  0.18012964  0.02511083    -0.10500
C836        C  0.01321131  0.17322124  0.04625872     0.03400
H837        H  0.94702996  0.09858130  0.12614653     0.16400
H838        H  0.99679905  0.20370426  0.99753323     0.16400
C839        C  0.05599267  0.19770705  0.03075516     0.38000
C840        C  0.88892367  0.10655697  0.09837296     0.38000
N841        N  0.09027604  0.21719847  0.01814461    -0.42300
N842        N  0.85605218  0.08912326  0.11553868    -0.42300
C843        C  0.72995942  0.07443934  0.08352690     0.01300
C844        C  0.74475038  0.06368359  0.04635671    -0.10600
C845        C  0.78120739  0.09335760  0.02111064     0.03500
C846        C  0.80480362  0.13384629  0.03517616     0.01200
C847        C  0.78720979  0.14486784  0.06949802    -0.10500
C848        C  0.74990455  0.11592992  0.09277645     0.03400
H849        H  0.72885082  0.03189088  0.03833934     0.16400
H850        H  0.80399441  0.17543404  0.08137988     0.16400
C851        C  0.73507571  0.12896781  0.12952863     0.38000
C852        C  0.79377167  0.08147776  0.98133790     0.38000
N853        N  0.72319187  0.13945849  0.15886913    -0.42300
N854        N  0.80354694  0.07197398  0.94918760    -0.42300
C855        C  0.79154462  0.41202508  0.30825563     0.01300
C856        C  0.81005459  0.39596215  0.33418773    -0.10600
C857        C  0.84635088  0.42144060  0.35538785     0.03500
C858        C  0.86463894  0.46410593  0.35212033     0.01200
C859        C  0.84772266  0.48063920  0.32465690    -0.10500
C860        C  0.81193775  0.45522596  0.30218401     0.03400
H861        H  0.79496413  0.36316435  0.34056312     0.16400
H862        H  0.86131147  0.51344888  0.32276416     0.16400
C863        C  0.79649820  0.47451821  0.27426644     0.37600
C864        C  0.86184681  0.40272560  0.38424754     0.38000
N865        N  0.78412758  0.49021057  0.25228133    -0.42300
N866        N  0.87419874  0.38772809  0.40742456    -0.42300
C867        C  0.59244457  0.38673385  0.34010647     0.01300
C868        C  0.57788403  0.34689887  0.32823925    -0.10600
C869        C  0.60330717  0.33751201  0.30478889     0.03500
C870        C  0.64475783  0.36914154  0.29115684     0.01200
C871        C  0.65583908  0.40995055  0.29515202    -0.10500
C872        C  0.63096444  0.41888978  0.32083899     0.03400
H873        H  0.54776436  0.32208527  0.34212152     0.16400
H874        H  0.68580356  0.43527997  0.28182137     0.16400
C875        C  0.64805496  0.46070057  0.33178462     0.38000
C876        C  0.58544058  0.29463890  0.29894682     0.38000
N877        N  0.66195348  0.49421537  0.34071861    -0.42300
N878        N  0.56947842  0.25997931  0.29428302    -0.42300
C879        C  0.68722156  0.27045105  0.27329440     0.01300
C880        C  0.65234559  0.24451559  0.30283878    -0.10600
C881        C  0.64623437  0.20913720  0.32516434     0.03500
C882        C  0.67567785  0.19910962  0.31866818     0.01200
C883        C  0.70763630  0.22175405  0.28491394    -0.10500
C884        C  0.71300525  0.25657751  0.26137362     0.03400
H885        H  0.63206159  0.25417342  0.31291892     0.16400
H886        H  0.73013657  0.21390135  0.27919666     0.16400
C887        C  0.74641893  0.27860594  0.22699461     0.38000
C888        C  0.61259835  0.18705402  0.35933318     0.38000
N889        N  0.77333299  0.29622603  0.19958272    -0.42300
N890        N  0.58571720  0.16947199  0.38678162    -0.42300
N891        N  0.64932239  0.13669672  0.87230531    -0.02000
C892        C  0.68001797  0.17447438  0.85494071     0.00600
C893        C  0.70803133  0.19412125  0.88760399    -0.22300
C894        C  0.69339026  0.16828628  0.92651155    -0.22500
C895        C  0.65699637  0.13370781  0.91634289     0.00500
H896        H  0.73364790  0.22575785  0.88519717     0.14200
H897        H  0.70612095  0.17536005  0.95949851     0.14300
N898        N  0.56565697  0.91927581  0.89243752    -0.02000
C899        C  0.57422172  0.39071608  0.88314493     0.00600
C900        C  0.57325397  0.37029137  0.92324251    -0.22300
C901        C  0.56509223  0.38732207  0.95830370    -0.22500
C902        C  0.56098023  0.91728560  0.93855677     0.00500
H903        H  0.58086624  0.34753099  0.92678458     0.14200
H904        H  0.56430350  0.38007318  0.99430910     0.14300
C905        C  0.67863097  0.36164937  0.78093630     0.04600
C906        C  0.67137298  0.32506189  0.76374037    -0.11600
C907        C  0.70064759  0.31453944  0.76639719     0.02100
C908        C  0.74069871  0.34497710  0.77628237    -0.10100
C909        C  0.75028844  0.38290952  0.79050869     0.04600
C910        C  0.71850915  0.38981056  0.79494824    -0.09500
H911        H  0.64228478  0.30295866  0.75100360     0.10200
H912        H  0.76379724  0.33782946  0.77720222     0.07700
H913        H  0.72448221  0.41615543  0.81239916     0.07500
N914        N  0.92893320  0.49518068  0.89531444    -0.02000
C915        C  0.89188038  0.48902702  0.88732147     0.00600
C916        C  0.87536794  0.49526225  0.92600441    -0.22300
C917        C  0.90260192  0.50494893  0.95911126    -0.22500
C918        C  0.93473113  0.50424199  0.93954374     0.00500
H919        H  0.84495691  0.48948742  0.93088261     0.14200
H920        H  0.89833135  0.50959685  0.99427998     0.14300
Zn921      Zn  0.60218784  0.02652486  0.01073781     1.49700
Zn922      Zn  0.54722815  0.06489332  0.00897083     1.49400
Zn923      Zn  0.50382750  0.46689206  0.01561588     1.49100
Zn924      Zn  0.54873793  0.01826886  0.59931580     1.49500
O925        O  0.55050027  0.01920233  0.53336111    -1.82700
O926        O  0.63396427  0.07521484  0.96583906    -0.73300
O927        O  0.99732664  0.54398660  0.97365128    -0.73100
O928        O  0.52244930  0.43891953  0.97596290    -0.72600
O929        O  0.59643974  0.10241454  0.96480588    -0.73300
O930        O  0.59049028  0.97758053  0.97749438    -0.72900
O931        O  0.96602004  0.47613198  0.97988852    -0.73500
O932        O  0.50471935  0.46285701  0.62829268    -0.72900
O933        O  0.04074619  0.09580110  0.55945225    -0.73700
O934        O  0.47210720  0.42687042  0.57023578    -0.73000
O935        O  0.53702161  0.05915400  0.62109818    -0.73500
O936        O  0.60232499  0.03109969  0.62246299    -0.73400
O937        O  0.63903007  0.03429725  0.56144545    -0.73200
C938        C  0.62758998  0.10208440  0.95085890     0.78600
C939        C  0.96794033  0.50835285  0.96551651     0.79100
C940        C  0.55775484  0.94624694  0.96519029     0.78000
C941        C  0.47646929  0.42973532  0.61284292     0.78400
C942        C  0.03562809  0.08836113  0.60255656     0.79500
C943        C  0.63466173  0.03539153  0.60426412     0.78600
Zn944      Zn  0.54574881  0.01488599  0.84966601     1.49700
Zn945      Zn  0.49337389  0.50791469  0.76484970     1.49400
Zn946      Zn  0.59237316  0.06562516  0.75628823     1.49100
Zn947      Zn  0.54734420  0.96714508  0.76619764     1.49500
O948        O  0.54450834  0.01387307  0.78390330    -1.82700
O949        O  0.49175675  0.50243288  0.87744275    -0.73300
O950        O  0.00732314  0.55790615  0.72357184    -0.73100
O951        O  0.62510674  0.10543716  0.80378359    -0.72600
O952        O  0.95534383  0.50034357  0.82005658    -0.73300
O953        O  0.59024201  0.07078210  0.86829594    -0.72900
O954        O  0.57555120  0.09557121  0.71532291    -0.73500
O955        O  0.59688994  0.98621009  0.72441183    -0.72900
O956        O  0.46220902  0.45832088  0.72766537    -0.73700
O957        O  0.62859478  0.05408683  0.71791099    -0.73000
O958        O  0.49819280  0.42940795  0.73095486    -0.73500
O959        O  0.55365522  0.93637870  0.81952792    -0.73400
O960        O  0.55723913  0.97360030  0.87615438    -0.73200
C961        C  0.95947260  0.49853439  0.86276016     0.78600
C962        C  0.04095080  0.08927582  0.70649386     0.79100
C963        C  0.61977341  0.10322592  0.84695579     0.78000
C964        C  0.62616497  0.02129787  0.70839489     0.78400
C965        C  0.46798448  0.43038227  0.71740652     0.79500
C966        C  0.55898433  0.94434772  0.86117483     0.78600
N967        N  0.66485432  0.03745502  0.63301059    -0.02000
C968        C  0.70096518  0.04273722  0.61886206     0.00600
C969        C  0.71581774  0.03109070  0.65429650    -0.22300
C970        C  0.68841338  0.01911881  0.69146352    -0.22500
C971        C  0.65793995  0.02410561  0.67749721     0.00500
H972        H  0.74572622  0.03548910  0.65466514     0.14200
H973        H  0.69198913  0.01080299  0.72563144     0.14300
N974        N  0.03146857  0.11510591  0.63134111    -0.02000
C975        C  0.02768126  0.14652115  0.61785787     0.00600
C976        C  0.03594589  0.17151674  0.65354186    -0.22300
C977        C  0.04371797  0.15435014  0.69020256    -0.22500
C978        C  0.03997217  0.11941232  0.67585092     0.00500
H979        H  0.03191898  0.19680383  0.65446929     0.14200
H980        H  0.04886160  0.16475110  0.72429218     0.14300
C981        C  0.91826204  0.17530446  0.52683153     0.04600
C982        C  0.87594062  0.14857310  0.52166958    -0.11600
C983        C  0.84964752  0.16287866  0.52167712     0.02100
C984        C  0.86714676  0.20528139  0.52232092    -0.10100
C985        C  0.90900632  0.23253943  0.52878997     0.04600
C986        C  0.93471111  0.21760173  0.52729220    -0.09500
H987        H  0.86301584  0.11604715  0.52243165     0.10200
H988        H  0.84706735  0.21636505  0.52361386     0.07700
H989        H  0.96709741  0.23843861  0.53154968     0.07500
N990        N  0.44737997  0.39596127  0.64415161    -0.02000
C991        C  0.41926829  0.35719393  0.63361875     0.00600
C992        C  0.39263186  0.33553311  0.67134124    -0.22300
C993        C  0.40538041  0.36146702  0.70621720    -0.22500
C994        C  0.43929126  0.39818804  0.68871334     0.00500
H995        H  0.86955268  0.30302270  0.67465177     0.14200
H996        H  0.39353662  0.35325502  0.74139199     0.14300
C997        C  0.92668838  0.33535123  0.59855760     0.01300
C998        C  0.94724413  0.31674368  0.61180412    -0.10600
C999        C  0.94456047  0.28520079  0.58796996     0.03500
C1000       C  0.92244800  0.27288282  0.54797235     0.01200
C1001       C  0.90592101  0.29522470  0.53197795    -0.10500
C1002       C  0.90698232  0.32546267  0.55750106     0.03400
H1003       H  0.46213970  0.32410386  0.64372443     0.16400
H1004       H  0.88938060  0.28691325  0.50124064     0.16400
C1005       C  0.88537863  0.34391786  0.54265286     0.38000
C1006       C  0.96051098  0.26316837  0.60925809     0.38000
N1007       N  0.86803601  0.35872170  0.53081494    -0.42300
N1008       N  0.97329369  0.24561980  0.62656420    -0.42300
C1009       C  0.99948173  0.14414307  0.58360409     0.01300
C1010       C  0.95753197  0.12030995  0.59675564    -0.10600
C1011       C  0.92996390  0.12803135  0.57707656     0.03500
C1012       C  0.94396250  0.15934223  0.54150918     0.01200
C1013       C  0.98542220  0.18007413  0.52510826    -0.10500
C1014       C  0.01318074  0.17316387  0.54626581     0.03400
H1015       H  0.94698188  0.09851245  0.62613308     0.16400
H1016       H  0.99677926  0.20365289  0.49753497     0.16400
C1017       C  0.05596390  0.19764398  0.53076927     0.38000
C1018       C  0.88887391  0.10646905  0.59831964     0.38000
N1019       N  0.09024873  0.21712787  0.51816412    -0.42300
N1020       N  0.85599321  0.08901954  0.61546226    -0.42300
C1021       C  0.72994744  0.07439153  0.58351499     0.01300
C1022       C  0.74473040  0.06363757  0.54633485    -0.10600
C1023       C  0.78118308  0.09331313  0.52108139     0.03500
C1024       C  0.80478383  0.13380069  0.53514943     0.01200
C1025       C  0.78719726  0.14482021  0.56948177    -0.10500
C1026       C  0.74989624  0.11588179  0.59276723     0.03400
H1027       H  0.72882688  0.03184574  0.53831301     0.16400
H1028       H  0.80398489  0.17538557  0.58136540     0.16400
C1029       C  0.73507521  0.12891984  0.62952678     0.38000
C1030       C  0.79373587  0.08143807  0.48129523     0.38000
N1031       N  0.72319799  0.13941162  0.65887272    -0.42300
N1032       N  0.80350039  0.07193865  0.44913288    -0.42300
C1033       C  0.79157240  0.41201610  0.80816933     0.01300
C1034       C  0.81008997  0.39595246  0.83408653    -0.10600
C1035       C  0.84638445  0.42143020  0.85529096     0.03500
C1036       C  0.86465481  0.46409269  0.85205401     0.01200
C1037       C  0.84773985  0.48062820  0.82459163    -0.10500
C1038       C  0.81196457  0.45521682  0.80210268     0.03400
H1039       H  0.79500740  0.36315428  0.84044804     0.16400
H1040       H  0.86132261  0.51343636  0.82270941     0.16400
C1041       C  0.79653613  0.47450901  0.77416624     0.37600
C1042       C  0.86190051  0.40271558  0.88411838     0.38000
N1043       N  0.78417620  0.49020009  0.75216041    -0.42300
N1044       N  0.87427215  0.38771939  0.90726576    -0.42300
C1045       C  0.59248167  0.38675610  0.84014890     0.01300
C1046       C  0.57792062  0.34691341  0.82831195    -0.10600
C1047       C  0.60333318  0.33751861  0.80485180     0.03500
C1048       C  0.64477556  0.36914576  0.79118164     0.01200
C1049       C  0.65585780  0.40995711  0.79516052    -0.10500
C1050       C  0.63099015  0.41890584  0.82084853     0.03400
H1051       H  0.54781027  0.32210342  0.84222193     0.16400
H1052       H  0.68581509  0.43528216  0.78180749     0.16400
C1053       C  0.64807344  0.46072571  0.83175060     0.38000
C1054       C  0.58546554  0.29464085  0.79903942     0.38000
N1055       N  0.66196426  0.49424851  0.84064684    -0.42300
N1056       N  0.56949953  0.25997705  0.79440034    -0.42300
C1057       C  0.68720564  0.27043938  0.77326273     0.01300
C1058       C  0.65234574  0.24451910  0.80283335    -0.10600
C1059       C  0.64623236  0.20913855  0.82515360     0.03500
C1060       C  0.67566076  0.19909485  0.81862989     0.01200
C1061       C  0.70760249  0.22172518  0.78485418    -0.10500
C1062       C  0.71297093  0.25655020  0.76131702     0.03400
H1063       H  0.63207947  0.25419166  0.81293791     0.16400
H1064       H  0.73009157  0.21386100  0.77911692     0.16400
C1065       C  0.74636475  0.27856319  0.72691330     0.38000
C1066       C  0.61261511  0.18707174  0.85934674     0.38000
N1067       N  0.77326190  0.29617022  0.69948011    -0.42300
N1068       N  0.58574957  0.16950309  0.88681496    -0.42300
N1069       N  0.64930977  0.63670458  0.37233333    -0.02000
C1070       C  0.68000695  0.67448736  0.35498193     0.00600
C1071       C  0.70802172  0.69411984  0.38764776    -0.22300
C1072       C  0.69338360  0.66826852  0.42654237    -0.22500
C1073       C  0.65698898  0.63369543  0.41636437     0.00500
H1074       H  0.73364044  0.72575528  0.38525162     0.14200
H1075       H  0.70611700  0.67532741  0.45952889     0.14300
N1076       N  0.56566202  0.41927902  0.39241437    -0.02000
C1077       C  0.57422189  0.89072077  0.38309791     0.00600
C1078       C  0.57322205  0.87026350  0.42318386    -0.22300
C1079       C  0.56504370  0.88727366  0.45825436    -0.22500
C1080       C  0.56095887  0.41725836  0.43853251     0.00500
H1081       H  0.58082601  0.84749628  0.42671457     0.14200
H1082       H  0.56423143  0.87999920  0.49425741     0.14300
C1083       C  0.67867836  0.86169798  0.28091754     0.04600
C1084       C  0.67142019  0.82510689  0.26373003    -0.11600
C1085       C  0.70068586  0.81457473  0.26641151     0.02100
C1086       C  0.74073566  0.84500778  0.27630498    -0.10100
C1087       C  0.75032818  0.88294482  0.29051658     0.04600
C1088       C  0.71855397  0.88985310  0.29494064    -0.09500
H1089       H  0.64233802  0.80300613  0.25097744     0.10200
H1090       H  0.76382922  0.83785323  0.27724485     0.07700
H1091       H  0.72453094  0.91619897  0.31239104     0.07500
N1092       N  0.92895869  0.99522822  0.39532968    -0.02000
C1093       C  0.89190563  0.98907455  0.38734170     0.00600
C1094       C  0.87539732  0.99531299  0.42602579    -0.22300
C1095       C  0.90263449  0.00500080  0.45912915    -0.22500
C1096       C  0.93476133  0.00429206  0.43955754     0.00500
H1097       H  0.84498546  0.98953549  0.43090863     0.14200
H1098       H  0.89836584  0.00964686  0.49429921     0.14300
Zn1099     Zn  0.60217744  0.52648768  0.51073402     1.49700
Zn1100     Zn  0.54721521  0.56484092  0.50896935     1.49400
Zn1101     Zn  0.50381399  0.96684200  0.51563296     1.49100
Zn1102     Zn  0.54874475  0.51831019  0.09931958     1.49500
O1103       O  0.55050917  0.51924811  0.03336284    -1.82700
O1104       O  0.63396557  0.57519498  0.46585112    -0.73300
O1105       O  0.99736552  0.04401755  0.47365247    -0.73100
O1106       O  0.52242948  0.93887517  0.47596811    -0.72600
O1107       O  0.59642164  0.60237191  0.46480963    -0.73300
O1108       O  0.59047369  0.47755094  0.47747183    -0.72900
O1109       O  0.96602434  0.97615986  0.47991066    -0.73500
O1110       O  0.50473085  0.96290348  0.12827734    -0.72900
O1111       O  0.04072290  0.59580135  0.05944190    -0.73700
O1112       O  0.47211337  0.92692717  0.07021506    -0.73000
O1113       O  0.53702937  0.55919304  0.12111395    -0.73500
O1114       O  0.60232835  0.53113644  0.12247327    -0.73400
O1115       O  0.63904566  0.53435233  0.06145862    -0.73200
C1116       C  0.62758294  0.60205895  0.45087121     0.78600
C1117       C  0.96796433  0.00838837  0.46552885     0.79100
C1118       C  0.55773551  0.44621193  0.46518079     0.78000
C1119       C  0.47647634  0.92978703  0.11282326     0.78400
C1120       C  0.03562107  0.58837362  0.10254807     0.79500
C1121       C  0.63467089  0.53543853  0.10427776     0.78600
Zn1122     Zn  0.54574355  0.51489222  0.34968192     1.49700
Zn1123     Zn  0.49337250  0.00793885  0.26486902     1.49400
Zn1124     Zn  0.59235909  0.56564608  0.25630866     1.49100
Zn1125     Zn  0.54733938  0.46716777  0.26619444     1.49500
O1126       O  0.54449836  0.51388783  0.28392007    -1.82700
O1127       O  0.49175389  0.00243218  0.37745790    -0.73300
O1128       O  0.00732009  0.05791795  0.22356970    -0.73100
O1129       O  0.62509100  0.60546201  0.30380277    -0.72600
O1130       O  0.95535475  0.00037047  0.32006896    -0.73300
O1131       O  0.59023407  0.57078971  0.36831118    -0.72900
O1132       O  0.57552822  0.59558016  0.21534198    -0.73500
O1133       O  0.59688802  0.48624613  0.22441165    -0.72900
O1134       O  0.46221122  0.95835696  0.22766958    -0.73700
O1135       O  0.62859034  0.55412268  0.21793246    -0.73000
O1136       O  0.49819988  0.92944819  0.23092944    -0.73500
O1137       O  0.55366074  0.43639838  0.31951357    -0.73400
O1138       O  0.55724673  0.47360894  0.37615389    -0.73200
C1139       C  0.95949138  0.99857254  0.36277223     0.78600
C1140       C  0.04096158  0.58930420  0.20648632     0.79100
C1141       C  0.61976049  0.60324069  0.34697594     0.78000
C1142       C  0.62616423  0.52133775  0.20840701     0.78400
C1143       C  0.46798953  0.93042448  0.21739132     0.79500
C1144       C  0.55899374  0.44436081  0.36116207     0.78600
N1145       N  0.66486250  0.53750369  0.13302794    -0.02000
C1146       C  0.70097512  0.54278713  0.11888529     0.00600
C1147       C  0.71582784  0.53114505  0.15432352    -0.22300
C1148       C  0.68842059  0.51917222  0.19148722    -0.22500
C1149       C  0.65794609  0.52415473  0.17751484     0.00500
H1150       H  0.74573646  0.53554434  0.15469538     0.14200
H1151       H  0.69199353  0.51085637  0.22565661     0.14300
N1152       N  0.03147125  0.61512566  0.13133142    -0.02000
C1153       C  0.02767975  0.64653831  0.11784853     0.00600
C1154       C  0.03594184  0.67153424  0.15353150    -0.22300
C1155       C  0.04371897  0.65437198  0.19019159    -0.22500
C1156       C  0.03997835  0.61943618  0.17584057     0.00500
H1157       H  0.03191065  0.69681879  0.15445855     0.14200
H1158       H  0.04886172  0.66477356  0.22428074     0.14300
C1159       C  0.91826518  0.67532041  0.02681567     0.04600
C1160       C  0.87594321  0.64859002  0.02165659    -0.11600
C1161       C  0.84965163  0.66289727  0.02166490     0.02100
C1162       C  0.86715324  0.70530074  0.02230270    -0.10100
C1163       C  0.90901227  0.73255696  0.02877488     0.04600
C1164       C  0.93471575  0.71761809  0.02727505    -0.09500
H1165       H  0.86301735  0.61606384  0.02242040     0.10200
H1166       H  0.84707515  0.71638562  0.02359324     0.07700
H1167       H  0.96710220  0.73845450  0.03153187     0.07500
N1168       N  0.44738272  0.89601332  0.14412913    -0.02000
C1169       C  0.41926200  0.85725149  0.13358902     0.00600
C1170       C  0.39261666  0.83559405  0.17130665    -0.22300
C1171       C  0.40537073  0.86152322  0.20618733    -0.22500
C1172       C  0.43929369  0.89823832  0.18869132     0.00500
H1173       H  0.86958497  0.80302159  0.17468907     0.14200
H1174       H  0.39352174  0.85331003  0.24136049     0.14300
C1175       C  0.92669372  0.83535638  0.09857019     0.01300
C1176       C  0.94725389  0.81675044  0.11180445    -0.10600
C1177       C  0.94456814  0.78521014  0.08796297     0.03500
C1178       C  0.92245321  0.77289690  0.04796654     0.01200
C1179       C  0.90592145  0.79523787  0.03198438    -0.10500
C1180       C  0.90698009  0.82546890  0.05751842     0.03400
H1181       H  0.46211357  0.82414701  0.14374117     0.16400
H1182       H  0.88937801  0.78692958  0.00124973     0.16400
C1183       C  0.88536188  0.84391379  0.04268869     0.38000
C1184       C  0.96051689  0.76317359  0.10924502     0.38000
N1185       N  0.86800568  0.85870734  0.03086604    -0.42300
N1186       N  0.97329715  0.74562106  0.12654703    -0.42300
C1187       C  0.99948404  0.64416025  0.08359062     0.01300
C1188       C  0.95753325  0.62032163  0.09673531    -0.10600
C1189       C  0.92996543  0.62804317  0.07705627     0.03500
C1190       C  0.94396537  0.65935774  0.04149266     0.01200
C1191       C  0.98542683  0.68009440  0.02509708    -0.10500
C1192       C  0.01318552  0.67318682  0.04625801     0.03400
H1193       H  0.94698178  0.59852054  0.12610964     0.16400
H1194       H  0.99678548  0.70367657  0.99752708     0.16400
C1195       C  0.05597155  0.69767834  0.03077424     0.38000
C1196       C  0.88887473  0.60647778  0.09829786     0.38000
N1197       N  0.09025901  0.71717242  0.01818052    -0.42300
N1198       N  0.85599378  0.58902570  0.11544010    -0.42300
C1199       C  0.72995558  0.57443237  0.08353122     0.01300
C1200       C  0.74473029  0.56366567  0.04635579    -0.10600
C1201       C  0.78118241  0.59333140  0.02109498     0.03500
C1202       C  0.80478948  0.63382380  0.03514867     0.01200
C1203       C  0.78721175  0.64485497  0.06947874    -0.10500
C1204       C  0.74991299  0.61592534  0.09277356     0.03400
H1205       H  0.72882138  0.53187076  0.03834458     0.16400
H1206       H  0.80400540  0.67542328  0.08135479     0.16400
C1207       C  0.73510501  0.62897528  0.12953369     0.38000
C1208       C  0.79372891  0.58143918  0.98131900     0.38000
N1209       N  0.72324008  0.63947784  0.15888049    -0.42300
N1210       N  0.80348838  0.57192392  0.94916639    -0.42300
C1211       C  0.79160634  0.91204937  0.30818599     0.01300
C1212       C  0.81010335  0.89598425  0.33413777    -0.10600
C1213       C  0.84638854  0.92146220  0.35535602     0.03500
C1214       C  0.86467504  0.96412731  0.35208654     0.01200
C1215       C  0.84777884  0.98066297  0.32459361    -0.10500
C1216       C  0.81200787  0.95525008  0.30209978     0.03400
H1217       H  0.79500888  0.86318621  0.34051647     0.16400
H1218       H  0.86137190  0.01347330  0.32269128     0.16400
C1219       C  0.79659012  0.97454090  0.27414281     0.37600
C1220       C  0.86187414  0.90274765  0.38423319     0.38000
N1221       N  0.78423784  0.99023139  0.25212275    -0.42300
N1222       N  0.87421894  0.88775120  0.40742344    -0.42300
C1223       C  0.59251503  0.88679616  0.34010842     0.01300
C1224       C  0.57794774  0.84696643  0.32821894    -0.10600
C1225       C  0.60336907  0.83757830  0.30476700     0.03500
C1226       C  0.64482574  0.86920334  0.29114819     0.01200
C1227       C  0.65591866  0.91001404  0.29517172    -0.10500
C1228       C  0.63104686  0.91895148  0.32086873     0.03400
H1229       H  0.54782150  0.82215427  0.34208628     0.16400
H1230       H  0.68588686  0.93534435  0.28185327     0.16400
C1231       C  0.64814970  0.96075411  0.33185807     0.38000
C1232       C  0.58549196  0.79470526  0.29891447     0.38000
N1233       N  0.66205858  0.99426078  0.34083195    -0.42300
N1234       N  0.56952239  0.76004576  0.29424490    -0.42300
C1235       C  0.68723243  0.77047241  0.27329346     0.01300
C1236       C  0.65237166  0.74456504  0.30286881    -0.10600
C1237       C  0.64624907  0.70918380  0.32520044     0.03500
C1238       C  0.67566230  0.69912004  0.31867413     0.01200
C1239       C  0.70760477  0.72173959  0.28489666    -0.10500
C1240       C  0.71298825  0.75657016  0.26135629     0.03400
H1241       H  0.63211174  0.75424926  0.31296619     0.16400
H1242       H  0.73008521  0.71386261  0.27916098     0.16400
C1243       C  0.74638923  0.77857671  0.22695959     0.38000
C1244       C  0.61264149  0.68713778  0.35940751     0.38000
N1245       N  0.77329295  0.79617915  0.19953318    -0.42300
N1246       N  0.58578535  0.66958722  0.38688915    -0.42300
N1247       N  0.64933213  0.63668774  0.87230704    -0.02000
C1248       C  0.68002847  0.67446239  0.85493838     0.00600
C1249       C  0.70804592  0.69410992  0.88759772    -0.22300
C1250       C  0.69340444  0.66827843  0.92650846    -0.22500
C1251       C  0.65700637  0.63370192  0.91634507     0.00500
H1252       H  0.73366577  0.72574478  0.88518642     0.14200
H1253       H  0.70613779  0.67535392  0.95949381     0.14300
N1254       N  0.56568306  0.41930016  0.89244316    -0.02000
C1255       C  0.57416174  0.89066799  0.88313616     0.00600
C1256       C  0.57318360  0.87023640  0.92323403    -0.22300
C1257       C  0.56505229  0.88728749  0.95829714    -0.22500
C1258       C  0.56099114  0.41730088  0.93856217     0.00500
H1259       H  0.58077014  0.84745666  0.92677474     0.14200
H1260       H  0.56426043  0.88003513  0.99430258     0.14300
C1261       C  0.67857177  0.86159583  0.78096964     0.04600
C1262       C  0.67133110  0.82501828  0.76376548    -0.11600
C1263       C  0.70061594  0.81450982  0.76642720     0.02100
C1264       C  0.74065770  0.84495158  0.77633854    -0.10100
C1265       C  0.75022813  0.88287291  0.79058194     0.04600
C1266       C  0.71843815  0.88975915  0.79500907    -0.09500
H1267       H  0.64224732  0.80291332  0.75101857     0.10200
H1268       H  0.76376385  0.83781486  0.77726183     0.07700
H1269       H  0.72439086  0.91609445  0.81246718     0.07500
N1270       N  0.92890664  0.99514981  0.89534322    -0.02000
C1271       C  0.89185529  0.98900561  0.88735927     0.00600
C1272       C  0.87535764  0.99525578  0.92604400    -0.22300
C1273       C  0.90259682  0.00494028  0.95914325    -0.22500
C1274       C  0.93471444  0.00421764  0.93956977     0.00500
H1275       H  0.84495145  0.98949229  0.93092899     0.14200
H1276       H  0.89833780  0.00959904  0.99431148     0.14300
Zn1277     Zn  0.60218656  0.52652963  0.01075246     1.49700
Zn1278     Zn  0.54723692  0.56490849  0.00897912     1.49400
Zn1279     Zn  0.50382955  0.96687866  0.01561438     1.49100
Zn1280     Zn  0.54872941  0.51825623  0.59931445     1.49500
O1281       O  0.55049739  0.51919052  0.53336093    -1.82700
O1282       O  0.63396515  0.57521185  0.96584784    -0.73300
O1283       O  0.99731311  0.04396548  0.97366503    -0.73100
O1284       O  0.52244969  0.93890829  0.97596567    -0.72600
O1285       O  0.59645363  0.60242573  0.96481475    -0.73300
O1286       O  0.59048842  0.47758611  0.97751260    -0.72900
O1287       O  0.96601221  0.97611117  0.97989997    -0.73500
O1288       O  0.50472677  0.96287278  0.62829466    -0.72900
O1289       O  0.04074290  0.59579538  0.55944027    -0.73700
O1290       O  0.47210505  0.92689214  0.57023726    -0.73000
O1291       O  0.53701413  0.55914530  0.62109392    -0.73500
O1292       O  0.60231626  0.53108560  0.62245964    -0.73400
O1293       O  0.63902677  0.53429060  0.56144249    -0.73200
C1294       C  0.62759785  0.60208555  0.95086553     0.78600
C1295       C  0.96792786  0.00833066  0.96553307     0.79100
C1296       C  0.55775612  0.44625709  0.96519657     0.78000
C1297       C  0.47647054  0.92975509  0.61284470     0.78400
C1298       C  0.03563036  0.58836141  0.60254503     0.79500
C1299       C  0.63465460  0.53537997  0.60426171     0.78600
Zn1300     Zn  0.54575392  0.51488969  0.84965979     1.49700
Zn1301     Zn  0.49336708  0.00791190  0.76486738     1.49400
Zn1302     Zn  0.59237878  0.56562304  0.75628849     1.49100
Zn1303     Zn  0.54733910  0.46713881  0.76619709     1.49500
O1304       O  0.54451023  0.51387232  0.78389586    -1.82700
O1305       O  0.49174325  0.00241938  0.87744900    -0.73300
O1306       O  0.00729106  0.05788918  0.72360816    -0.73100
O1307       O  0.62511558  0.60542808  0.80378648    -0.72600
O1308       O  0.95531210  0.00031267  0.82008129    -0.73300
O1309       O  0.59024486  0.57077921  0.86829775    -0.72900
O1310       O  0.57556701  0.59558009  0.71532766    -0.73500
O1311       O  0.59687680  0.48619955  0.72440460    -0.72900
O1312       O  0.46221143  0.95832702  0.72767739    -0.73700
O1313       O  0.62859350  0.55407806  0.71791138    -0.73000
O1314       O  0.49820333  0.92942192  0.73095014    -0.73500
O1315       O  0.55367164  0.43638879  0.81953091    -0.73400
O1316       O  0.55724692  0.47361039  0.87615326    -0.73200
C1317       C  0.95944548  0.99850660  0.86278359     0.78600
C1318       C  0.04098778  0.58929838  0.70647544     0.79100
C1319       C  0.61978083  0.60321871  0.84695824     0.78000
C1320       C  0.62615607  0.52128627  0.70839154     0.78400
C1321       C  0.46799183  0.93039398  0.71740986     0.79500
C1322       C  0.55900154  0.44436262  0.86117681     0.78600
N1323       N  0.66484485  0.53744061  0.63300983    -0.02000
C1324       C  0.70095775  0.54272654  0.61886460     0.00600
C1325       C  0.71580898  0.53107934  0.65429999    -0.22300
C1326       C  0.68840210  0.51910466  0.69146475    -0.22500
C1327       C  0.65792834  0.52408947  0.67749552     0.00500
H1328       H  0.74571890  0.53548149  0.65467186     0.14200
H1329       H  0.69197722  0.51079024  0.72563398     0.14300
N1330       N  0.03148809  0.61511854  0.63132698    -0.02000
C1331       C  0.02773763  0.64655607  0.61783509     0.00600
C1332       C  0.03605651  0.67157884  0.65350304    -0.22300
C1333       C  0.04382468  0.65440805  0.69016321    -0.22500
C1334       C  0.04002015  0.61943931  0.67582791     0.00500
H1335       H  0.03206855  0.69689152  0.65442395     0.14200
H1336       H  0.04900574  0.66482971  0.72424319     0.14300
C1337       C  0.91827575  0.67533575  0.52687022     0.04600
C1338       C  0.87595191  0.64859547  0.52173116    -0.11600
C1339       C  0.84965384  0.66289483  0.52173280     0.02100
C1340       C  0.86714683  0.70529672  0.52236709    -0.10100
C1341       C  0.90901123  0.73256513  0.52880689     0.04600
C1342       C  0.93472099  0.71763356  0.52730052    -0.09500
H1343       H  0.86303102  0.61606925  0.52251143     0.10200
H1344       H  0.84706292  0.71637423  0.52366435     0.07700
H1345       H  0.96711201  0.73847850  0.53152621     0.07500
N1346       N  0.44738043  0.89598173  0.64415355    -0.02000
C1347       C  0.41927313  0.85721450  0.63362071     0.00600
C1348       C  0.39264502  0.83554590  0.67134654    -0.22300
C1349       C  0.40539526  0.86147620  0.70622548    -0.22500
C1350       C  0.43929798  0.89820189  0.68871876     0.00500
H1351       H  0.86955907  0.80302541  0.67464857     0.14200
H1352       H  0.39355996  0.85325914  0.74140295     0.14300
C1353       C  0.92668653  0.83537933  0.59854769     0.01300
C1354       C  0.94728256  0.81680875  0.61176963    -0.10600
C1355       C  0.94460826  0.78527060  0.58793583     0.03500
C1356       C  0.92245841  0.77291847  0.54796547     0.01200
C1357       C  0.90589910  0.79523445  0.53198570    -0.10500
C1358       C  0.90695496  0.82546899  0.55750888     0.03400
H1359       H  0.46219111  0.82417335  0.64369769     0.16400
H1360       H  0.88933742  0.78690354  0.50126396     0.16400
C1361       C  0.88532419  0.84390071  0.54268004     0.38000
C1362       C  0.96061399  0.76328128  0.60920035     0.38000
N1363       N  0.86796175  0.85868789  0.53085841    -0.42300
N1364       N  0.97344403  0.74577005  0.62648778    -0.42300
C1365       C  0.99952102  0.64418817  0.58360987     0.01300
C1366       C  0.95757693  0.62036764  0.59679159    -0.10600
C1367       C  0.93000304  0.62809069  0.57713148     0.03500
C1368       C  0.94398646  0.65938608  0.54154914     0.01200
C1369       C  0.98543990  0.68011195  0.52512639    -0.10500
C1370       C  0.01320652  0.67320432  0.54626819     0.03400
H1371       H  0.94703835  0.59857861  0.62617546     0.16400
H1372       H  0.99678621  0.70368211  0.49754556     0.16400
C1373       C  0.05598460  0.69768263  0.53075037     0.38000
C1374       C  0.88892580  0.60654831  0.59840719     0.38000
N1375       N  0.09026522  0.71716692  0.51812829    -0.42300
N1376       N  0.85605574  0.58911614  0.61557652    -0.42300
C1377       C  0.72994244  0.57438762  0.58352558     0.01300
C1378       C  0.74474273  0.56364326  0.54635310    -0.10600
C1379       C  0.78120003  0.59332653  0.52111389     0.03500
C1380       C  0.80478898  0.63381119  0.53519156     0.01200
C1381       C  0.78718575  0.64482192  0.56951406    -0.10500
C1382       C  0.74987785  0.61587594  0.59278258     0.03400
H1383       H  0.72884886  0.53185309  0.53832667     0.16400
H1384       H  0.80396388  0.67538631  0.58140197     0.16400
C1385       C  0.73503307  0.62890363  0.62952948     0.38000
C1386       C  0.79377047  0.58146295  0.48133174     0.38000
N1387       N  0.72313432  0.63938525  0.65886467    -0.42300
N1388       N  0.80355039  0.57197426  0.44917205    -0.42300
C1389       C  0.79150626  0.91198452  0.80825494     0.01300
C1390       C  0.81003501  0.89592418  0.83415749    -0.10600
C1391       C  0.84633961  0.92140402  0.85534507     0.03500
C1392       C  0.86461209  0.96406693  0.85210517     0.01200
C1393       C  0.84767815  0.98059841  0.82466818    -0.10500
C1394       C  0.81189027  0.95518521  0.80219919     0.03400
H1395       H  0.79495618  0.86312633  0.84051711     0.16400
H1396       H  0.86125745  0.01340624  0.82279143     0.16400
C1397       C  0.79644221  0.97447699  0.77429543     0.37600
C1398       C  0.86186584  0.90269130  0.88415902     0.38000
N1399       N  0.78406550  0.99016808  0.75231860    -0.42300
N1400       N  0.87424537  0.88769678  0.90729640    -0.42300
C1401       C  0.59240978  0.88669352  0.84013894     0.01300
C1402       C  0.57785534  0.84684526  0.82832545    -0.10600
C1403       C  0.60327121  0.83745044  0.80487296     0.03500
C1404       C  0.64470784  0.86908153  0.79119070     0.01200
C1405       C  0.65577903  0.90989157  0.79513889    -0.10500
C1406       C  0.63090785  0.91884312  0.82081354     0.03400
H1407       H  0.54775100  0.82203457  0.84224909     0.16400
H1408       H  0.68573386  0.93521506  0.78177568     0.16400
C1409       C  0.64797983  0.96067094  0.83167314     0.38000
C1410       C  0.58541629  0.79457166  0.79907961     0.38000
N1411       N  0.66186097  0.99420154  0.84053100    -0.42300
N1412       N  0.56945929  0.75990680  0.79445376    -0.42300
C1413       C  0.68719073  0.77041340  0.77326562     0.01300
C1414       C  0.65231650  0.74446601  0.80280638    -0.10600
C1415       C  0.64621335  0.70908711  0.82511841     0.03500
C1416       C  0.67567057  0.69907805  0.81862229     0.01200
C1417       C  0.70762732  0.72173276  0.78486819    -0.10500
C1418       C  0.71298169  0.75655163  0.76133268     0.03400
H1419       H  0.63202885  0.75411392  0.81289647     0.16400
H1420       H  0.73013496  0.71389170  0.77914677     0.16400
C1421       C  0.74638567  0.77858624  0.72694376     0.38000
C1422       C  0.61256840  0.68698396  0.85927416     0.38000
N1423       N  0.77329004  0.79621051  0.69952143    -0.42300
N1424       N  0.58567828  0.66938461  0.88670974    -0.42300
loop_ 
_geom_bond_atom_site_label_1 
_geom_bond_atom_site_label_2 
_geom_bond_distance 
_geom_bond_site_symmetry_2 
_ccdc_geom_bond_type 
N1            C5   1.356       .  A
N1            C2   1.358       .  A
N1           C73   1.444       .  S
C2            C3   1.386       .  A
C2          C170   1.486       .  S
C3            C4   1.377       .  A
C3            H6   1.082       .  S
C4            C5   1.377       .  A
C4            H7   1.082       .  S
C5           C48   1.468       .  S
N8           C12   1.359       .  A
N8          C365   1.362       .  A
N8           C76   1.448       .  S
C9          N364   1.362       .  A
C9           C10   1.387       .  A
C9          C155   1.488       .  S
C10          C11   1.370       .  A
C10          H13   1.083       .  S
C11         C368   1.375       .  A
C11          H14   1.082       .  S
C12         C367   1.375       .  A
C12          C50   1.460       .  S
C15          C16   1.416       .  A
C15          C20   1.418       .  A
C15         C158   1.524       .  S
C16          C17   1.412       .  A
C16          H21   1.076       .  S
C17          C18   1.403       .  A
C17         C167   1.504       .  S
C18          C19   1.402       .  A
C18          H22   1.079       .  S
C19          C20   1.408       .  A
C19         C143   1.503       .  S
C20          H23   1.080       .  S
N24          C28   1.358       .  A
N24          C25   1.360       .  A
N24          C71   1.449       .  S
C25          C26   1.385       .  A
C25         C146   1.477       .  S
C26          C27   1.372       .  A
C26          H29   1.083       .  S
C27          C28   1.376       .  A
C27          H30   1.082       .  S
C28          C49   1.462       .  S
Zn31         O36   2.006       .  S
Zn31         O40   2.012   1_545  S
Zn31        O225   2.023       .  S
Zn31        O213   1.964       .  S
Zn32         O39   2.035       .  S
Zn32       O1105   2.000   1_455  S
Zn32        O933   2.046       .  S
Zn32        O213   1.966       .  S
Zn33         O38   1.999       .  S
Zn33        O753   2.016   1_455  S
Zn33        O222   2.029   1_455  S
Zn33        O569   1.963       .  S
Zn34         O45   2.007       .  S
Zn34         O46   2.015       .  S
Zn34        O398   2.016   1_545  S
Zn34         O35   1.941       .  S
O35        Zn209   1.964       .  S
O35        Zn210   1.966       .  S
O35        Zn567   1.964   1_545  S
O36          C48   1.270       .  A
O37       Zn1100   2.000       .  S
O37          C49   1.270       .  A
O38         C406   1.269       .  A
O39          C48   1.276       .  A
O40          C50   1.273       .  A
O41        Zn745   2.016       .  S
O41          C49   1.273       .  A
O42        Zn390   2.015       .  S
O42          C51   1.273   1_455  A
O43        Zn922   2.046       .  S
O43          C52   1.276       .  A
O44        Zn211   2.029   1_655  S
O44          C51   1.274       .  A
O45         C764   1.273       .  A
O46          C53   1.274       .  A
O47        Zn209   2.022       .  S
O47          C53   1.273       .  A
C50         O394   1.269       .  A
C51         N100   1.442       .  S
C52          N84   1.443       .  S
C52         O757   1.273       .  A
C53          N77   1.441       .  S
Zn54         O63   2.026       .  S
Zn54         O70   2.030   1_545  S
Zn54        O415   2.019   1_455  S
Zn54         O58   1.942       .  S
Zn55         O66   2.029       .  S
Zn55        O772   2.049   1_655  S
Zn55        O774   2.064       .  S
Zn55        O414   1.981   1_655  S
Zn56         O61   2.033       .  S
Zn56         O64   2.008       .  S
Zn56         O67   2.026       .  S
Zn56         O58   1.971       .  S
Zn57         O65   2.001       .  S
Zn57         O69   2.043       .  S
Zn57        O424   2.024   1_455  S
Zn57         O58   1.977   1_565  S
O58        Zn411   1.980   1_455  S
O59        Zn410   2.019   1_655  S
O59         C783   1.275       .  A
O60        Zn767   2.049       .  S
O60         C428   1.277       .  A
O61          C73   1.274       .  A
O62        Zn767   2.064       .  S
O62          C71   1.278       .  A
O63          C73   1.275       .  A
O64         C784   1.270       .  A
O65          C74   1.269   1_565  A
O66          C75   1.274       .  A
O67          C74   1.275       .  A
O68        Zn413   2.023   1_655  S
O68          C75   1.275       .  A
O69          C76   1.274       .  A
O70          C76   1.276       .  A
C71         O771   1.275       .  A
C72          C88   1.473       .  S
C72         O416   1.277       .  A
C72         O776   1.270       .  A
C74          C81   1.465       .  S
C75         C104   1.470       .  S
N77          C81   1.354       .  A
N77          C78   1.355       .  A
C78          C79   1.387       .  A
C78         C131   1.479       .  S
C79          C80   1.378       .  A
C79          H82   1.083       .  S
C80          C81   1.377       .  A
C80          H83   1.082       .  S
N84          C88   1.358       .  A
N84          C85   1.360       .  A
C85          C86   1.387       .  A
C85         C119   1.485       .  S
C86          C87   1.376       .  A
C86          H89   1.083       .  S
C87          C88   1.377       .  A
C87          H90   1.082       .  S
C91          C92   1.409       .  A
C91          C96   1.410       .  A
C91         C122   1.506       .  S
C92          C93   1.410       .  A
C92          H97   1.080       .  S
C93          C94   1.407       .  A
C93         C134   1.503       .  S
C94          C95   1.405       .  A
C94          H98   1.082       .  S
C95          C96   1.409       .  A
C95         C110   1.506       .  S
C96          H99   1.082       .  S
N100        C104   1.358       .  A
N100        C101   1.356       .  A
C101        C102   1.386       .  A
C101        C819   1.483       .  S
C102        C103   1.377       .  A
C102        H817   1.082       .  S
C103        C104   1.378       .  A
C103        H106   1.082       .  S
H105        C814   1.083       .  S
C107        C108   1.399       .  A
C107        C112   1.406       .  A
C107        C813   1.483       .  S
C108        C109   1.398       .  A
C108        H825   1.086       .  S
C109        C110   1.423       .  A
C109        C116   1.445       .  S
C110        C111   1.414       .  A
C111        C112   1.408       .  A
C111        H114   1.084       .  S
C112        C115   1.443       .  S
H113        C820   1.086       .  S
C115        N117   1.157       .  T
C116        N118   1.158       .  T
C119        C120   1.400       .  A
C119        C124   1.408       .  A
C120        C121   1.401       .  A
C120        H125   1.086       .  S
C121        C122   1.423       .  A
C121        C128   1.445       .  S
C122        C123   1.411       .  A
C123        C124   1.408       .  A
C123        H126   1.085   1_554  S
C124        C127   1.442       .  S
C127        N129   1.157       .  T
C128        N130   1.158       .  T
C131        C132   1.403       .  A
C131        C136   1.407       .  A
C132        C133   1.408       .  A
C132        H137   1.084       .  S
C133        C134   1.417       .  A
C133        C140   1.443   1_554  S
C134        C135   1.411       .  A
C135        C136   1.394       .  A
C135        H138   1.083       .  S
C136        C139   1.446       .  S
C139        N141   1.157       .  T
C140        N142   1.157       .  T
C143        C144   1.411       .  A
C143        C148   1.419       .  A
C144        C145   1.398       .  A
C144        H149   1.084       .  S
C145        C146   1.408       .  A
C145        C152   1.445       .  S
C146        C147   1.402       .  A
C147        C148   1.405       .  A
C147        H150   1.085       .  S
C148        C151   1.444       .  S
C151        N153   1.157       .  T
C152        N154   1.157       .  T
C155        C156   1.399       .  A
C155        C160   1.409       .  A
C156        C157   1.402       .  A
C156        H161   1.087       .  S
C157        C158   1.428       .  A
C157        C164   1.441       .  S
C158        C159   1.417       .  A
C159        C160   1.406       .  A
C159        H162   1.084       .  S
C160        C163   1.444       .  S
C163        N165   1.157       .  T
C164        N166   1.158       .  T
C167        C168   1.408       .  A
C167        C172   1.419       .  A
C168        C169   1.399       .  A
C168        H173   1.084       .  S
C169        C170   1.411       .  A
C169        C176   1.445       .  S
C170        C171   1.404       .  A
C171        C172   1.407       .  A
C171        H174   1.086       .  S
C172        C175   1.444       .  S
C175        N177   1.157       .  T
C176        N178   1.157       .  T
N179        C183   1.356       .  A
N179        C180   1.358       .  A
N179        C251   1.444       .  S
C180        C181   1.386       .  A
C180        C348   1.486       .  S
C181        C182   1.377       .  A
C181        H184   1.082       .  S
C182        C183   1.377       .  A
C182        H185   1.082       .  S
C183        C226   1.468       .  S
N186        C190   1.359       .  A
N186        C543   1.362       .  A
N186        C254   1.448       .  S
C187        N542   1.362       .  A
C187        C188   1.387       .  A
C187        C333   1.488       .  S
C188        C189   1.370       .  A
C188        H191   1.083       .  S
C189        C546   1.375       .  A
C189        H192   1.082       .  S
C190        C545   1.375       .  A
C190        C228   1.460       .  S
C193        C194   1.416       .  A
C193        C198   1.418       .  A
C193        C336   1.524       .  S
C194        C195   1.412       .  A
C194        H199   1.076       .  S
C195        C196   1.403       .  A
C195        C345   1.504       .  S
C196        C197   1.402       .  A
C196        H200   1.079       .  S
C197        C198   1.408       .  A
C197        C321   1.503       .  S
C198        H201   1.080       .  S
N202        C206   1.358       .  A
N202        C203   1.360       .  A
N202        C249   1.449       .  S
C203        C204   1.385       .  A
C203        C324   1.477       .  S
C204        C205   1.372       .  A
C204        H207   1.083       .  S
C205        C206   1.376       .  A
C205        H208   1.082       .  S
C206        C227   1.462       .  S
Zn209       O214   2.006   1_554  S
Zn209       O218   2.012   1_544  S
Zn210      O1283   2.000   1_454  S
Zn210       O217   2.035   1_554  S
Zn210       O755   2.046       .  S
Zn211       O216   2.000   1_554  S
Zn211       O931   2.016   1_454  S
Zn211       O391   1.964       .  S
Zn212       O576   2.016   1_545  S
Zn212       O223   2.007       .  S
Zn212       O224   2.015       .  S
Zn212       O213   1.941       .  S
O213       Zn389   1.963   1_545  S
O214        C226   1.270       .  A
O215      Zn1278   2.001   1_556  S
O215        C227   1.270       .  A
O216        C584   1.269       .  A
O217        C226   1.276       .  A
O218        C228   1.273       .  A
O219       Zn923   2.016   1_556  S
O219        C227   1.274       .  A
O220       Zn568   2.016       .  S
O220        C229   1.273   1_455  A
O221       Zn744   2.046       .  S
O221        C230   1.276       .  A
O222        C229   1.274       .  A
O223        C942   1.273       .  A
O224        C231   1.274       .  A
O225        C231   1.273       .  A
C228        O572   1.269       .  A
C229        N278   1.442       .  S
C230        N262   1.443       .  S
C230        O935   1.273       .  A
C231        N255   1.441       .  S
Zn232       O593   2.019   1_455  S
Zn232       O241   2.026       .  S
Zn232       O248   2.030   1_545  S
Zn232       O236   1.942       .  S
Zn233       O950   2.049   1_655  S
Zn233       O952   2.064       .  S
Zn233       O244   2.029       .  S
Zn233       O592   1.980   1_655  S
Zn234       O239   2.033       .  S
Zn234       O242   2.008       .  S
Zn234       O245   2.026       .  S
Zn234       O236   1.971       .  S
Zn235       O243   2.001       .  S
Zn235       O602   2.023   1_455  S
Zn235       O247   2.043       .  S
Zn235       O236   1.977   1_565  S
O236       Zn589   1.980   1_455  S
O237       Zn588   2.019   1_655  S
O237        C961   1.275       .  A
O238       Zn945   2.049       .  S
O238        C606   1.277       .  A
O239        C251   1.274       .  A
O240       Zn945   2.064       .  S
O240        C249   1.278       .  A
O241        C251   1.275       .  A
O242        C962   1.270       .  A
O243        C252   1.269   1_565  A
O244        C253   1.274       .  A
O245        C252   1.275       .  A
O246       Zn591   2.024   1_655  S
O246        C253   1.275       .  A
O247        C254   1.274       .  A
O248        C254   1.276       .  A
C249        O949   1.275       .  A
C250        C266   1.473       .  S
C250        O594   1.277       .  A
C250        O954   1.270       .  A
C252        C259   1.465       .  S
C253        C282   1.470       .  S
N255        C259   1.354       .  A
N255        C256   1.355       .  A
C256        C257   1.387       .  A
C256        C309   1.479       .  S
C257        C258   1.378       .  A
C257        H260   1.083       .  S
C258        C259   1.377       .  A
C258        H261   1.082       .  S
N262        C266   1.358       .  A
N262        C263   1.360       .  A
C263        C264   1.387       .  A
C263        C297   1.485       .  S
C264        C265   1.376       .  A
C264        H267   1.083       .  S
C265        C266   1.377       .  A
C265        H268   1.082       .  S
C269        C270   1.409       .  A
C269        C274   1.410       .  A
C269        C300   1.506       .  S
C270        C271   1.410       .  A
C270        H275   1.080       .  S
C271        C272   1.407       .  A
C271        C312   1.503       .  S
C272        C273   1.405       .  A
C272        H276   1.082       .  S
C273        C274   1.409       .  A
C273        C288   1.506       .  S
C274        H277   1.082       .  S
N278        C282   1.358       .  A
N278        C279   1.356       .  A
C279        C280   1.386       .  A
C279        C997   1.483       .  S
C280        C281   1.377       .  A
C280        H995   1.083       .  S
C281        C282   1.378       .  A
C281        H284   1.082       .  S
H283        C992   1.083       .  S
C285        C286   1.399       .  A
C285        C290   1.406       .  A
C285        C991   1.483       .  S
C286        C287   1.398       .  A
C286       H1003   1.086       .  S
C287        C288   1.423       .  A
C287        C294   1.445       .  S
C288        C289   1.414       .  A
C289        C290   1.408       .  A
C289        H292   1.084       .  S
C290        C293   1.443       .  S
H291        C998   1.086       .  S
C293        N295   1.157       .  T
C294        N296   1.158       .  T
C297        C298   1.400       .  A
C297        C302   1.408       .  A
C298        C299   1.401       .  A
C298        H303   1.086       .  S
C299        C300   1.423       .  A
C299        C306   1.445       .  S
C300        C301   1.411       .  A
C301        C302   1.408       .  A
C301        H304   1.085       .  S
C302        C305   1.442       .  S
C305        N307   1.157       .  T
C306        N308   1.158       .  T
C309        C310   1.403       .  A
C309        C314   1.407       .  A
C310        C311   1.408       .  A
C310        H315   1.084       .  S
C311        C312   1.417       .  A
C311        C318   1.443       .  S
C312        C313   1.411       .  A
C313        C314   1.394       .  A
C313        H316   1.083       .  S
C314        C317   1.446       .  S
C317        N319   1.157       .  T
C318        N320   1.157       .  T
C321        C322   1.411       .  A
C321        C326   1.419       .  A
C322        C323   1.398       .  A
C322        H327   1.084       .  S
C323        C324   1.408       .  A
C323        C330   1.445       .  S
C324        C325   1.402       .  A
C325        C326   1.405       .  A
C325        H328   1.085       .  S
C326        C329   1.444       .  S
C329        N331   1.157       .  T
C330        N332   1.157       .  T
C333        C334   1.399       .  A
C333        C338   1.409       .  A
C334        C335   1.402       .  A
C334        H339   1.087       .  S
C335        C336   1.428       .  A
C335        C342   1.441       .  S
C336        C337   1.417       .  A
C337        C338   1.406       .  A
C337        H340   1.084       .  S
C338        C341   1.444       .  S
C341        N343   1.157       .  T
C342        N344   1.158       .  T
C345        C346   1.408       .  A
C345        C350   1.419       .  A
C346        C347   1.399       .  A
C346        H351   1.084       .  S
C347        C348   1.411       .  A
C347        C354   1.445       .  S
C348        C349   1.404       .  A
C349        C350   1.407       .  A
C349        H352   1.086       .  S
C350        C353   1.444       .  S
C353        N355   1.157       .  T
C354        N356   1.157       .  T
N357        C361   1.356       .  A
N357        C358   1.358       .  A
N357        C429   1.444       .  S
C358        C359   1.386       .  A
C358        C526   1.486       .  S
C359        C360   1.377       .  A
C359        H362   1.082       .  S
C360        C361   1.377       .  A
C360        H363   1.082       .  S
C361        C404   1.468       .  S
N364        C368   1.359       .  A
N364        C432   1.448       .  S
C365        C366   1.387       .  A
C365        C511   1.488       .  S
C366        C367   1.370       .  A
C366        H369   1.083       .  S
C367        H370   1.082       .  S
C368        C406   1.460       .  S
C371        C372   1.416       .  A
C371        C376   1.418       .  A
C371        C514   1.524       .  S
C372        C373   1.412       .  A
C372        H377   1.076       .  S
C373        C374   1.403       .  A
C373        C523   1.504       .  S
C374        C375   1.402       .  A
C374        H378   1.079       .  S
C375        C376   1.408       .  A
C375        C499   1.503       .  S
C376        H379   1.080       .  S
N380        C384   1.358   1_565  A
N380        C381   1.360       .  A
N380        C427   1.449       .  S
C381        C382   1.385       .  A
C381        C502   1.477       .  S
C382        C383   1.372   1_565  A
C382        H385   1.083       .  S
C383        C384   1.376       .  A
C383        H386   1.082       .  S
C384        C405   1.462       .  S
Zn387       O392   2.006       .  S
Zn387       O396   2.012       .  S
Zn387       O581   2.023       .  S
Zn387       O569   1.964       .  S
Zn388       O749   2.000   1_455  S
Zn388       O395   2.035       .  S
Zn388      O1289   2.046       .  S
Zn388       O569   1.966       .  S
Zn389       O394   1.999       .  S
Zn389      O1109   2.016   1_455  S
Zn389       O578   2.029   1_455  S
Zn390       O401   2.007       .  S
Zn390       O402   2.015       .  S
Zn390       O391   1.941       .  S
O391       Zn565   1.964       .  S
O391       Zn566   1.966       .  S
O392        C404   1.270       .  A
O393       Zn744   2.000       .  S
O393        C405   1.270       .  A
O395        C404   1.276       .  A
O396        C406   1.273       .  A
O397      Zn1101   2.016       .  S
O397        C405   1.274   1_565  A
O398        C407   1.273   1_455  A
O399      Zn1278   2.046       .  S
O399        C408   1.276       .  A
O400       Zn567   2.029   1_655  S
O400        C407   1.274       .  A
O401       C1120   1.273       .  A
O402        C409   1.274       .  A
O403       Zn565   2.022       .  S
O403        C409   1.273       .  A
C407        N456   1.442       .  S
C408        N440   1.443       .  S
C408       O1113   1.273       .  A
C409        N433   1.441       .  S
Zn410       O419   2.026       .  S
Zn410       O426   2.030       .  S
Zn410       O414   1.942       .  S
Zn411      O1128   2.049   1_655  S
Zn411      O1130   2.064       .  S
Zn411       O422   2.029   1_545  S
Zn412       O417   2.033       .  S
Zn412       O420   2.008       .  S
Zn412       O423   2.027       .  S
Zn412       O414   1.971       .  S
Zn413       O421   2.001       .  S
Zn413       O425   2.043       .  S
Zn413       O414   1.977       .  S
O415       C1139   1.275   1_545  A
O416      Zn1123   2.049       .  S
O417        C429   1.274       .  A
O418      Zn1123   2.064       .  S
O418        C427   1.278   1_545  A
O419        C429   1.275       .  A
O420       C1140   1.270       .  A
O421        C430   1.269       .  A
O422        C431   1.274       .  A
O423        C430   1.275       .  A
O424        C431   1.275       .  A
O425        C432   1.274       .  A
O426        C432   1.276       .  A
C427       O1127   1.275   1_565  A
C428        C444   1.473       .  S
C428       O1132   1.270       .  A
C430        C437   1.465       .  S
C431        C460   1.470       .  S
N433        C437   1.354       .  A
N433        C434   1.355       .  A
C434        C435   1.387       .  A
C434        C487   1.479       .  S
C435        C436   1.378       .  A
C435        H438   1.083       .  S
C436        C437   1.377       .  A
C436        H439   1.082       .  S
N440        C444   1.358       .  A
N440        C441   1.360       .  A
C441        C442   1.387       .  A
C441        C475   1.485       .  S
C442        C443   1.376       .  A
C442        H445   1.083       .  S
C443        C444   1.377       .  A
C443        H446   1.082       .  S
C447        C448   1.409       .  A
C447        C452   1.410       .  A
C447        C478   1.506       .  S
C448        C449   1.410       .  A
C448        H453   1.080       .  S
C449        C450   1.407       .  A
C449        C490   1.503       .  S
C450        C451   1.405       .  A
C450        H454   1.082       .  S
C451        C452   1.409       .  A
C451        C466   1.506       .  S
C452        H455   1.082       .  S
N456        C460   1.358       .  A
N456        C457   1.356       .  A
C457        C458   1.386       .  A
C457       C1175   1.483       .  S
C458        C459   1.377       .  A
C458       H1173   1.082       .  S
C459        C460   1.378       .  A
C459        H462   1.082       .  S
H461       C1170   1.083       .  S
C463        C464   1.399       .  A
C463        C468   1.406       .  A
C463       C1169   1.483       .  S
C464        C465   1.398       .  A
C464       H1181   1.086       .  S
C465        C466   1.423       .  A
C465        C472   1.445       .  S
C466        C467   1.414       .  A
C467        C468   1.408       .  A
C467        H470   1.084       .  S
C468        C471   1.443       .  S
H469       C1176   1.086       .  S
C471        N473   1.157       .  T
C472        N474   1.158       .  T
C475        C476   1.400       .  A
C475        C480   1.408       .  A
C476        C477   1.401       .  A
C476        H481   1.086       .  S
C477        C478   1.423       .  A
C477        C484   1.445       .  S
C478        C479   1.411       .  A
C479        C480   1.408       .  A
C479        H482   1.085   1_554  S
C480        C483   1.442       .  S
C483        N485   1.157       .  T
C484        N486   1.158       .  T
C487        C488   1.403       .  A
C487        C492   1.407       .  A
C488        C489   1.408       .  A
C488        H493   1.084       .  S
C489        C490   1.417       .  A
C489        C496   1.443   1_554  S
C490        C491   1.411       .  A
C491        C492   1.394       .  A
C491        H494   1.083       .  S
C492        C495   1.446       .  S
C495        N497   1.157       .  T
C496        N498   1.157       .  T
C499        C500   1.411       .  A
C499        C504   1.419       .  A
C500        C501   1.398       .  A
C500        H505   1.084       .  S
C501        C502   1.408       .  A
C501        C508   1.445       .  S
C502        C503   1.402       .  A
C503        C504   1.405       .  A
C503        H506   1.085   1_565  S
C504        C507   1.444       .  S
C507        N509   1.157       .  T
C508        N510   1.157       .  T
C511        C512   1.399       .  A
C511        C516   1.409       .  A
C512        C513   1.402       .  A
C512        H517   1.087       .  S
C513        C514   1.428       .  A
C513        C520   1.441       .  S
C514        C515   1.417       .  A
C515        C516   1.406       .  A
C515        H518   1.084       .  S
C516        C519   1.444       .  S
C519        N521   1.157       .  T
C520        N522   1.158       .  T
C523        C524   1.408       .  A
C523        C528   1.419       .  A
C524        C525   1.399       .  A
C524        H529   1.084       .  S
C525        C526   1.411       .  A
C525        C532   1.445       .  S
C526        C527   1.404       .  A
C527        C528   1.407       .  A
C527        H530   1.086       .  S
C528        C531   1.444       .  S
C531        N533   1.157       .  T
C532        N534   1.157       .  T
N535        C539   1.356       .  A
N535        C536   1.358       .  A
N535        C607   1.444       .  S
C536        C537   1.386       .  A
C536        C704   1.486       .  S
C537        C538   1.377       .  A
C537        H540   1.082       .  S
C538        C539   1.377       .  A
C538        H541   1.082       .  S
C539        C582   1.468       .  S
N542        C546   1.359       .  A
N542        C610   1.448       .  S
C543        C544   1.387       .  A
C543        C689   1.488       .  S
C544        C545   1.370       .  A
C544        H547   1.083       .  S
C545        H548   1.082       .  S
C546        C584   1.460       .  S
C549        C550   1.416       .  A
C549        C554   1.418       .  A
C549        C692   1.524       .  S
C550        C551   1.412       .  A
C550        H555   1.076       .  S
C551        C552   1.403       .  A
C551        C701   1.504       .  S
C552        C553   1.402       .  A
C552        H556   1.079       .  S
C553        C554   1.408       .  A
C553        C677   1.503       .  S
C554        H557   1.080       .  S
N558        C562   1.358   1_565  A
N558        C559   1.360       .  A
N558        C605   1.449       .  S
C559        C560   1.385       .  A
C559        C680   1.477       .  S
C560        C561   1.372   1_565  A
C560        H563   1.083       .  S
C561        C562   1.376       .  A
C561        H564   1.082       .  S
C562        C583   1.462       .  S
Zn565       O570   2.006   1_554  S
Zn565       O574   2.012   1_554  S
Zn566       O927   2.001   1_454  S
Zn566       O573   2.035   1_554  S
Zn566      O1111   2.046       .  S
Zn567       O572   1.999   1_554  S
Zn567      O1287   2.016   1_454  S
Zn568       O579   2.007       .  S
Zn568       O580   2.015       .  S
Zn568       O569   1.941       .  S
O570        C582   1.270       .  A
O571       Zn922   2.000   1_556  S
O571        C583   1.270       .  A
O573        C582   1.276       .  A
O574        C584   1.273       .  A
O575      Zn1279   2.016   1_556  S
O575        C583   1.274   1_565  A
O576        C585   1.273   1_455  A
O577      Zn1100   2.046       .  S
O577        C586   1.276       .  A
O578        C585   1.274       .  A
O579       C1298   1.273       .  A
O580        C587   1.274       .  A
O581        C587   1.273       .  A
C585        N634   1.442       .  S
C586        N618   1.443       .  S
C586       O1291   1.273       .  A
C587        N611   1.441       .  S
Zn588       O597   2.026       .  S
Zn588       O604   2.030       .  S
Zn588       O592   1.942       .  S
Zn589      O1306   2.049   1_655  S
Zn589      O1308   2.064       .  S
Zn589       O600   2.029   1_545  S
Zn590       O595   2.033       .  S
Zn590       O598   2.008       .  S
Zn590       O601   2.026       .  S
Zn590       O592   1.971       .  S
Zn591       O599   2.001       .  S
Zn591       O603   2.043       .  S
Zn591       O592   1.977       .  S
O593       C1317   1.275   1_545  A
O594      Zn1301   2.049       .  S
O595        C607   1.274       .  A
O596      Zn1301   2.064       .  S
O596        C605   1.278   1_545  A
O597        C607   1.275       .  A
O598       C1318   1.270       .  A
O599        C608   1.269       .  A
O600        C609   1.274       .  A
O601        C608   1.275       .  A
O602        C609   1.275       .  A
O603        C610   1.274       .  A
O604        C610   1.276       .  A
C605       O1305   1.275   1_565  A
C606        C622   1.473       .  S
C606       O1310   1.270       .  A
C608        C615   1.465       .  S
C609        C638   1.470       .  S
N611        C615   1.354       .  A
N611        C612   1.355       .  A
C612        C613   1.387       .  A
C612        C665   1.479       .  S
C613        C614   1.378       .  A
C613        H616   1.083       .  S
C614        C615   1.377       .  A
C614        H617   1.082       .  S
N618        C622   1.358       .  A
N618        C619   1.360       .  A
C619        C620   1.387       .  A
C619        C653   1.485       .  S
C620        C621   1.376       .  A
C620        H623   1.083       .  S
C621        C622   1.377       .  A
C621        H624   1.082       .  S
C625        C626   1.409       .  A
C625        C630   1.410       .  A
C625        C656   1.506       .  S
C626        C627   1.410       .  A
C626        H631   1.080       .  S
C627        C628   1.407       .  A
C627        C668   1.503       .  S
C628        C629   1.405       .  A
C628        H632   1.082       .  S
C629        C630   1.409       .  A
C629        C644   1.506       .  S
C630        H633   1.082       .  S
N634        C638   1.358       .  A
N634        C635   1.356       .  A
C635        C636   1.386       .  A
C635       C1353   1.483       .  S
C636        C637   1.377       .  A
C636       H1351   1.083       .  S
C637        C638   1.378       .  A
C637        H640   1.082       .  S
H639       C1348   1.082       .  S
C641        C642   1.399       .  A
C641        C646   1.406       .  A
C641       C1347   1.483       .  S
C642        C643   1.398       .  A
C642       H1359   1.086       .  S
C643        C644   1.423       .  A
C643        C650   1.445       .  S
C644        C645   1.414       .  A
C645        C646   1.408       .  A
C645        H648   1.084       .  S
C646        C649   1.443       .  S
H647       C1354   1.086       .  S
C649        N651   1.157       .  T
C650        N652   1.158       .  T
C653        C654   1.400       .  A
C653        C658   1.408       .  A
C654        C655   1.401       .  A
C654        H659   1.086       .  S
C655        C656   1.423       .  A
C655        C662   1.445       .  S
C656        C657   1.411       .  A
C657        C658   1.408       .  A
C657        H660   1.085       .  S
C658        C661   1.442       .  S
C661        N663   1.157       .  T
C662        N664   1.158       .  T
C665        C666   1.403       .  A
C665        C670   1.407       .  A
C666        C667   1.408       .  A
C666        H671   1.084       .  S
C667        C668   1.417       .  A
C667        C674   1.443       .  S
C668        C669   1.411       .  A
C669        C670   1.394       .  A
C669        H672   1.083       .  S
C670        C673   1.446       .  S
C673        N675   1.157       .  T
C674        N676   1.157       .  T
C677        C678   1.411       .  A
C677        C682   1.419       .  A
C678        C679   1.398       .  A
C678        H683   1.084       .  S
C679        C680   1.408       .  A
C679        C686   1.445       .  S
C680        C681   1.402       .  A
C681        C682   1.405       .  A
C681        H684   1.085   1_565  S
C682        C685   1.444       .  S
C685        N687   1.157       .  T
C686        N688   1.157       .  T
C689        C690   1.399       .  A
C689        C694   1.409       .  A
C690        C691   1.402       .  A
C690        H695   1.087       .  S
C691        C692   1.428       .  A
C691        C698   1.441       .  S
C692        C693   1.417       .  A
C693        C694   1.406       .  A
C693        H696   1.084       .  S
C694        C697   1.444       .  S
C697        N699   1.157       .  T
C698        N700   1.158       .  T
C701        C702   1.408       .  A
C701        C706   1.419       .  A
C702        C703   1.399       .  A
C702        H707   1.084       .  S
C703        C704   1.411       .  A
C703        C710   1.445       .  S
C704        C705   1.404       .  A
C705        C706   1.407       .  A
C705        H708   1.086       .  S
C706        C709   1.444       .  S
C709        N711   1.157       .  T
C710        N712   1.157       .  T
N713        C717   1.356       .  A
N713        C714   1.358       .  A
N713        C785   1.444       .  S
C714        C715   1.386       .  A
C714        C882   1.486       .  S
C715        C716   1.377       .  A
C715        H718   1.082       .  S
C716        C717   1.377       .  A
C716        H719   1.082       .  S
C717        C760   1.468       .  S
N720        C724   1.359       .  A
N720       C1077   1.362       .  A
N720        C788   1.448       .  S
C721       N1076   1.362       .  A
C721        C722   1.387       .  A
C721        C867   1.488       .  S
C722        C723   1.370       .  A
C722        H725   1.083       .  S
C723       C1080   1.375       .  A
C723        H726   1.082       .  S
C724       C1079   1.375       .  A
C724        C762   1.460       .  S
C727        C728   1.416       .  A
C727        C732   1.418       .  A
C727        C870   1.524       .  S
C728        C729   1.412       .  A
C728        H733   1.076       .  S
C729        C730   1.403       .  A
C729        C879   1.504       .  S
C730        C731   1.402       .  A
C730        H734   1.079       .  S
C731        C732   1.408       .  A
C731        C855   1.503       .  S
C732        H735   1.080       .  S
N736        C740   1.358       .  A
N736        C737   1.360       .  A
N736        C783   1.449       .  S
C737        C738   1.385       .  A
C737        C858   1.477       .  S
C738        C739   1.372       .  A
C738        H741   1.083       .  S
C739        C740   1.376       .  A
C739        H742   1.082       .  S
C740        C761   1.462       .  S
Zn743       O748   2.006       .  S
Zn743       O752   2.012   1_545  S
Zn743       O937   2.022       .  S
Zn743       O925   1.964       .  S
Zn744       O751   2.035       .  S
Zn744       O925   1.966       .  S
Zn745       O750   1.999       .  S
Zn745       O934   2.029       .  S
Zn745      O1281   1.963       .  S
Zn746      O1110   2.015   1_545  S
Zn746       O757   2.007       .  S
Zn746       O758   2.015       .  S
Zn746       O747   1.941       .  S
O747       Zn921   1.964       .  S
O747       Zn922   1.966       .  S
O747      Zn1279   1.964   1_545  S
O748        C760   1.270       .  A
O749        C761   1.270       .  A
O750       C1118   1.269       .  A
O751        C760   1.276       .  A
O752        C762   1.273       .  A
O753        C761   1.273       .  A
O754      Zn1102   2.015       .  S
O754        C763   1.273       .  A
O755        C764   1.276       .  A
O756       Zn923   2.030       .  S
O756        C763   1.274       .  A
O758        C765   1.274       .  A
O759       Zn921   2.023       .  S
O759        C765   1.273       .  A
C762       O1106   1.269       .  A
C763        N812   1.442       .  S
C764        N796   1.443       .  S
C765        N789   1.441       .  S
Zn766      O1127   2.019       .  S
Zn766       O775   2.026       .  S
Zn766       O782   2.030   1_545  S
Zn766       O770   1.942       .  S
Zn767       O778   2.029       .  S
Zn767      O1126   1.981       .  S
Zn768       O773   2.033       .  S
Zn768       O776   2.008       .  S
Zn768       O779   2.026       .  S
Zn768       O770   1.971       .  S
Zn769       O777   2.001       .  S
Zn769      O1136   2.024       .  S
Zn769       O781   2.043       .  S
Zn769       O770   1.977   1_565  S
O770      Zn1123   1.980       .  S
O771      Zn1122   2.019       .  S
O772       C1140   1.277       .  A
O773        C785   1.274       .  A
O774        C783   1.278       .  A
O775        C785   1.275       .  A
O777        C786   1.269   1_565  A
O778        C787   1.274       .  A
O779        C786   1.275       .  A
O780      Zn1125   2.023       .  S
O780        C787   1.275       .  A
O781        C788   1.274       .  A
O782        C788   1.276       .  A
C784        C800   1.473       .  S
C784       O1128   1.277       .  A
C786        C793   1.465       .  S
C787        C816   1.470       .  S
N789        C793   1.354       .  A
N789        C790   1.355       .  A
C790        C791   1.387       .  A
C790        C843   1.479       .  S
C791        C792   1.378       .  A
C791        H794   1.083       .  S
C792        C793   1.377       .  A
C792        H795   1.082       .  S
N796        C800   1.358       .  A
N796        C797   1.360       .  A
C797        C798   1.387       .  A
C797        C831   1.485   1_455  S
C798        C799   1.376       .  A
C798        H801   1.083       .  S
C799        C800   1.377       .  A
C799        H802   1.082       .  S
C803        C804   1.409       .  A
C803        C808   1.410       .  A
C803        C834   1.506       .  S
C804        C805   1.410       .  A
C804        H809   1.080       .  S
C805        C806   1.407       .  A
C805        C846   1.503       .  S
C806        C807   1.405       .  A
C806        H810   1.082       .  S
C807        C808   1.409       .  A
C807        C822   1.506       .  S
C808        H811   1.082       .  S
N812        C816   1.358       .  A
N812        C813   1.356       .  A
C813        C814   1.386       .  A
C814        C815   1.377       .  A
C815        C816   1.378       .  A
C815        H818   1.082       .  S
C819        C820   1.399       .  A
C819        C824   1.406       .  A
C820        C821   1.398       .  A
C821        C822   1.423       .  A
C821        C828   1.445       .  S
C822        C823   1.414       .  A
C823        C824   1.408       .  A
C823        H826   1.084       .  S
C824        C827   1.443       .  S
C827        N829   1.157       .  T
C828        N830   1.158       .  T
C831        C832   1.400       .  A
C831        C836   1.408   1_655  A
C832        C833   1.401       .  A
C832        H837   1.086       .  S
C833        C834   1.423       .  A
C833        C840   1.445       .  S
C834        C835   1.411       .  A
C835        C836   1.408   1_655  A
C835        H838   1.085   1_554  S
C836        C839   1.442       .  S
C839        N841   1.157       .  T
C840        N842   1.158       .  T
C843        C844   1.403       .  A
C843        C848   1.407       .  A
C844        C845   1.408       .  A
C844        H849   1.084       .  S
C845        C846   1.417       .  A
C845        C852   1.443   1_554  S
C846        C847   1.411       .  A
C847        C848   1.394       .  A
C847        H850   1.083       .  S
C848        C851   1.446       .  S
C851        N853   1.157       .  T
C852        N854   1.157       .  T
C855        C856   1.411       .  A
C855        C860   1.419       .  A
C856        C857   1.398       .  A
C856        H861   1.084       .  S
C857        C858   1.408       .  A
C857        C864   1.445       .  S
C858        C859   1.402       .  A
C859        C860   1.405       .  A
C859        H862   1.085       .  S
C860        C863   1.444       .  S
C863        N865   1.157       .  T
C864        N866   1.157       .  T
C867        C868   1.399       .  A
C867        C872   1.409       .  A
C868        C869   1.402       .  A
C868        H873   1.087       .  S
C869        C870   1.428       .  A
C869        C876   1.441       .  S
C870        C871   1.417       .  A
C871        C872   1.406       .  A
C871        H874   1.084       .  S
C872        C875   1.444       .  S
C875        N877   1.157       .  T
C876        N878   1.158       .  T
C879        C880   1.408       .  A
C879        C884   1.419       .  A
C880        C881   1.399       .  A
C880        H885   1.084       .  S
C881        C882   1.411       .  A
C881        C888   1.445       .  S
C882        C883   1.404       .  A
C883        C884   1.407       .  A
C883        H886   1.086       .  S
C884        C887   1.444       .  S
C887        N889   1.157       .  T
C888        N890   1.157       .  T
N891        C895   1.356       .  A
N891        C892   1.358       .  A
N891        C963   1.444       .  S
C892        C893   1.386       .  A
C892       C1060   1.486       .  S
C893        C894   1.377       .  A
C893        H896   1.082       .  S
C894        C895   1.377       .  A
C894        H897   1.082       .  S
C895        C938   1.468       .  S
N898        C902   1.359       .  A
N898       C1255   1.362       .  A
N898        C966   1.448       .  S
C899       N1254   1.362       .  A
C899        C900   1.387       .  A
C899       C1045   1.488       .  S
C900        C901   1.370       .  A
C900        H903   1.083       .  S
C901       C1258   1.375       .  A
C901        H904   1.082       .  S
C902       C1257   1.375       .  A
C902        C940   1.460       .  S
C905        C906   1.416       .  A
C905        C910   1.418       .  A
C905       C1048   1.524       .  S
C906        C907   1.412       .  A
C906        H911   1.076       .  S
C907        C908   1.403       .  A
C907       C1057   1.504       .  S
C908        C909   1.402       .  A
C908        H912   1.079       .  S
C909        C910   1.408       .  A
C909       C1033   1.503       .  S
C910        H913   1.080       .  S
N914        C918   1.358       .  A
N914        C915   1.360       .  A
N914        C961   1.449       .  S
C915        C916   1.385       .  A
C915       C1036   1.477       .  S
C916        C917   1.372       .  A
C916        H919   1.083       .  S
C917        C918   1.376       .  A
C917        H920   1.082       .  S
C918        C939   1.462       .  S
Zn921       O926   2.006   1_554  S
Zn921       O930   2.012   1_544  S
Zn922       O929   2.035   1_554  S
Zn923       O928   1.999   1_554  S
Zn923      O1103   1.964       .  S
Zn924      O1288   2.016   1_545  S
Zn924       O935   2.007       .  S
Zn924       O936   2.015       .  S
Zn924       O925   1.941       .  S
O925      Zn1101   1.964   1_545  S
O926        C938   1.270       .  A
O927        C939   1.270       .  A
O928       C1296   1.269       .  A
O929        C938   1.276       .  A
O930        C940   1.273       .  A
O931        C939   1.274       .  A
O932      Zn1280   2.016       .  S
O932        C941   1.273       .  A
O933        C942   1.276       .  A
O934        C941   1.274       .  A
O936        C943   1.274       .  A
O937        C943   1.273       .  A
C940       O1284   1.269       .  A
C941        N990   1.442       .  S
C942        N974   1.443       .  S
C943        N967   1.441       .  S
Zn944      O1305   2.019       .  S
Zn944       O953   2.026       .  S
Zn944       O960   2.030   1_545  S
Zn944       O948   1.942       .  S
Zn945       O956   2.029       .  S
Zn945      O1304   1.980       .  S
Zn946       O951   2.033       .  S
Zn946       O954   2.008       .  S
Zn946       O957   2.027       .  S
Zn946       O948   1.971       .  S
Zn947       O955   2.001       .  S
Zn947      O1314   2.023       .  S
Zn947       O959   2.043       .  S
Zn947       O948   1.977   1_565  S
O948      Zn1301   1.981       .  S
O949      Zn1300   2.019       .  S
O950       C1318   1.277       .  A
O951        C963   1.274       .  A
O952        C961   1.278       .  A
O953        C963   1.275       .  A
O955        C964   1.269   1_565  A
O956        C965   1.274       .  A
O957        C964   1.275       .  A
O958      Zn1303   2.023       .  S
O958        C965   1.275       .  A
O959        C966   1.274       .  A
O960        C966   1.276       .  A
C962        C978   1.473       .  S
C962       O1306   1.277       .  A
C964        C971   1.465       .  S
C965        C994   1.470       .  S
N967        C971   1.354       .  A
N967        C968   1.355       .  A
C968        C969   1.387       .  A
C968       C1021   1.479       .  S
C969        C970   1.378       .  A
C969        H972   1.083       .  S
C970        C971   1.377       .  A
C970        H973   1.082       .  S
N974        C978   1.358       .  A
N974        C975   1.360       .  A
C975        C976   1.387       .  A
C975       C1009   1.485   1_455  S
C976        C977   1.376       .  A
C976        H979   1.083       .  S
C977        C978   1.377       .  A
C977        H980   1.082       .  S
C981        C982   1.409       .  A
C981        C986   1.410       .  A
C981       C1012   1.506       .  S
C982        C983   1.410       .  A
C982        H987   1.080       .  S
C983        C984   1.407       .  A
C983       C1024   1.503       .  S
C984        C985   1.405       .  A
C984        H988   1.082       .  S
C985        C986   1.409       .  A
C985       C1000   1.506       .  S
C986        H989   1.082       .  S
N990        C994   1.358       .  A
N990        C991   1.356       .  A
C991        C992   1.386       .  A
C992        C993   1.377       .  A
C993        C994   1.378       .  A
C993        H996   1.082       .  S
C997        C998   1.399       .  A
C997       C1002   1.407       .  A
C998        C999   1.398       .  A
C999       C1000   1.423       .  A
C999       C1006   1.445       .  S
C1000      C1001   1.414       .  A
C1001      C1002   1.408       .  A
C1001      H1004   1.084       .  S
C1002      C1005   1.443       .  S
C1005      N1007   1.157       .  T
C1006      N1008   1.158       .  T
C1009      C1010   1.400       .  A
C1009      C1014   1.408   1_655  A
C1010      C1011   1.401       .  A
C1010      H1015   1.086       .  S
C1011      C1012   1.423       .  A
C1011      C1018   1.445       .  S
C1012      C1013   1.411       .  A
C1013      C1014   1.408   1_655  A
C1013      H1016   1.085       .  S
C1014      C1017   1.442       .  S
C1017      N1019   1.157       .  T
C1018      N1020   1.158       .  T
C1021      C1022   1.403       .  A
C1021      C1026   1.407       .  A
C1022      C1023   1.408       .  A
C1022      H1027   1.084       .  S
C1023      C1024   1.417       .  A
C1023      C1030   1.443       .  S
C1024      C1025   1.411       .  A
C1025      C1026   1.394       .  A
C1025      H1028   1.083       .  S
C1026      C1029   1.446       .  S
C1029      N1031   1.157       .  T
C1030      N1032   1.157       .  T
C1033      C1034   1.411       .  A
C1033      C1038   1.419       .  A
C1034      C1035   1.398       .  A
C1034      H1039   1.084       .  S
C1035      C1036   1.408       .  A
C1035      C1042   1.445       .  S
C1036      C1037   1.402       .  A
C1037      C1038   1.405       .  A
C1037      H1040   1.085       .  S
C1038      C1041   1.444       .  S
C1041      N1043   1.157       .  T
C1042      N1044   1.157       .  T
C1045      C1046   1.399       .  A
C1045      C1050   1.409       .  A
C1046      C1047   1.402       .  A
C1046      H1051   1.087       .  S
C1047      C1048   1.428       .  A
C1047      C1054   1.441       .  S
C1048      C1049   1.417       .  A
C1049      C1050   1.406       .  A
C1049      H1052   1.084       .  S
C1050      C1053   1.444       .  S
C1053      N1055   1.157       .  T
C1054      N1056   1.158       .  T
C1057      C1058   1.408       .  A
C1057      C1062   1.419       .  A
C1058      C1059   1.399       .  A
C1058      H1063   1.084       .  S
C1059      C1060   1.411       .  A
C1059      C1066   1.445       .  S
C1060      C1061   1.404       .  A
C1061      C1062   1.407       .  A
C1061      H1064   1.086       .  S
C1062      C1065   1.444       .  S
C1065      N1067   1.157       .  T
C1066      N1068   1.157       .  T
N1069      C1073   1.356       .  A
N1069      C1070   1.358       .  A
N1069      C1141   1.444       .  S
C1070      C1071   1.386       .  A
C1070      C1238   1.486       .  S
C1071      C1072   1.377       .  A
C1071      H1074   1.082       .  S
C1072      C1073   1.377       .  A
C1072      H1075   1.082       .  S
C1073      C1116   1.468       .  S
N1076      C1080   1.359       .  A
N1076      C1144   1.448       .  S
C1077      C1078   1.387       .  A
C1077      C1223   1.488       .  S
C1078      C1079   1.370       .  A
C1078      H1081   1.083       .  S
C1079      H1082   1.082       .  S
C1080      C1118   1.460       .  S
C1083      C1084   1.416       .  A
C1083      C1088   1.418       .  A
C1083      C1226   1.524       .  S
C1084      C1085   1.412       .  A
C1084      H1089   1.076       .  S
C1085      C1086   1.403       .  A
C1085      C1235   1.504       .  S
C1086      C1087   1.402       .  A
C1086      H1090   1.079       .  S
C1087      C1088   1.408       .  A
C1087      C1211   1.503       .  S
C1088      H1091   1.080       .  S
N1092      C1096   1.358   1_565  A
N1092      C1093   1.360       .  A
N1092      C1139   1.449       .  S
C1093      C1094   1.385       .  A
C1093      C1214   1.477       .  S
C1094      C1095   1.372   1_565  A
C1094      H1097   1.083       .  S
C1095      C1096   1.376       .  A
C1095      H1098   1.082       .  S
C1096      C1117   1.462       .  S
Zn1099     O1104   2.006       .  S
Zn1099     O1108   2.012       .  S
Zn1099     O1293   2.022       .  S
Zn1099     O1281   1.964       .  S
Zn1100     O1107   2.035       .  S
Zn1100     O1281   1.966       .  S
Zn1101     O1106   1.999       .  S
Zn1101     O1290   2.029       .  S
Zn1102     O1113   2.007       .  S
Zn1102     O1114   2.015       .  S
Zn1102     O1103   1.941       .  S
O1103     Zn1277   1.964       .  S
O1103     Zn1278   1.966       .  S
O1104      C1116   1.270       .  A
O1105      C1117   1.270       .  A
O1107      C1116   1.276       .  A
O1108      C1118   1.273       .  A
O1109      C1117   1.273   1_565  A
O1110      C1119   1.273       .  A
O1111      C1120   1.276       .  A
O1112     Zn1279   2.029       .  S
O1112      C1119   1.274       .  A
O1114      C1121   1.274       .  A
O1115     Zn1277   2.023       .  S
O1115      C1121   1.273       .  A
C1119      N1168   1.442       .  S
C1120      N1152   1.443       .  S
C1121      N1145   1.441       .  S
Zn1122     O1131   2.026       .  S
Zn1122     O1138   2.030       .  S
Zn1122     O1126   1.942       .  S
Zn1123     O1134   2.029   1_545  S
Zn1124     O1129   2.033       .  S
Zn1124     O1132   2.008       .  S
Zn1124     O1135   2.026       .  S
Zn1124     O1126   1.971       .  S
Zn1125     O1133   2.001       .  S
Zn1125     O1137   2.043       .  S
Zn1125     O1126   1.977       .  S
O1129      C1141   1.274       .  A
O1130      C1139   1.278   1_545  A
O1131      C1141   1.275       .  A
O1133      C1142   1.269       .  A
O1134      C1143   1.274       .  A
O1135      C1142   1.275       .  A
O1136      C1143   1.275       .  A
O1137      C1144   1.274       .  A
O1138      C1144   1.276       .  A
C1140      C1156   1.473       .  S
C1142      C1149   1.465       .  S
C1143      C1172   1.470       .  S
N1145      C1149   1.354       .  A
N1145      C1146   1.355       .  A
C1146      C1147   1.387       .  A
C1146      C1199   1.479       .  S
C1147      C1148   1.378       .  A
C1147      H1150   1.083       .  S
C1148      C1149   1.377       .  A
C1148      H1151   1.082       .  S
N1152      C1156   1.358       .  A
N1152      C1153   1.360       .  A
C1153      C1154   1.387       .  A
C1153      C1187   1.485   1_455  S
C1154      C1155   1.376       .  A
C1154      H1157   1.083       .  S
C1155      C1156   1.377       .  A
C1155      H1158   1.082       .  S
C1159      C1160   1.409       .  A
C1159      C1164   1.410       .  A
C1159      C1190   1.506       .  S
C1160      C1161   1.410       .  A
C1160      H1165   1.080       .  S
C1161      C1162   1.407       .  A
C1161      C1202   1.503       .  S
C1162      C1163   1.405       .  A
C1162      H1166   1.082       .  S
C1163      C1164   1.409       .  A
C1163      C1178   1.506       .  S
C1164      H1167   1.082       .  S
N1168      C1172   1.358       .  A
N1168      C1169   1.356       .  A
C1169      C1170   1.386       .  A
C1170      C1171   1.377       .  A
C1171      C1172   1.378       .  A
C1171      H1174   1.082       .  S
C1175      C1176   1.399       .  A
C1175      C1180   1.407       .  A
C1176      C1177   1.398       .  A
C1177      C1178   1.423       .  A
C1177      C1184   1.445       .  S
C1178      C1179   1.414       .  A
C1179      C1180   1.408       .  A
C1179      H1182   1.084       .  S
C1180      C1183   1.443       .  S
C1183      N1185   1.157       .  T
C1184      N1186   1.158       .  T
C1187      C1188   1.400       .  A
C1187      C1192   1.408   1_655  A
C1188      C1189   1.401       .  A
C1188      H1193   1.086       .  S
C1189      C1190   1.423       .  A
C1189      C1196   1.445       .  S
C1190      C1191   1.411       .  A
C1191      C1192   1.408   1_655  A
C1191      H1194   1.085   1_554  S
C1192      C1195   1.442       .  S
C1195      N1197   1.157       .  T
C1196      N1198   1.158       .  T
C1199      C1200   1.403       .  A
C1199      C1204   1.407       .  A
C1200      C1201   1.408       .  A
C1200      H1205   1.084       .  S
C1201      C1202   1.417       .  A
C1201      C1208   1.443   1_554  S
C1202      C1203   1.411       .  A
C1203      C1204   1.394       .  A
C1203      H1206   1.083       .  S
C1204      C1207   1.446       .  S
C1207      N1209   1.157       .  T
C1208      N1210   1.157       .  T
C1211      C1212   1.411       .  A
C1211      C1216   1.419       .  A
C1212      C1213   1.398       .  A
C1212      H1217   1.084       .  S
C1213      C1214   1.408       .  A
C1213      C1220   1.445       .  S
C1214      C1215   1.402       .  A
C1215      C1216   1.405       .  A
C1215      H1218   1.085   1_565  S
C1216      C1219   1.444       .  S
C1219      N1221   1.157       .  T
C1220      N1222   1.157       .  T
C1223      C1224   1.399       .  A
C1223      C1228   1.409       .  A
C1224      C1225   1.402       .  A
C1224      H1229   1.087       .  S
C1225      C1226   1.428       .  A
C1225      C1232   1.441       .  S
C1226      C1227   1.417       .  A
C1227      C1228   1.406       .  A
C1227      H1230   1.084       .  S
C1228      C1231   1.444       .  S
C1231      N1233   1.157       .  T
C1232      N1234   1.158       .  T
C1235      C1236   1.408       .  A
C1235      C1240   1.419       .  A
C1236      C1237   1.399       .  A
C1236      H1241   1.084       .  S
C1237      C1238   1.411       .  A
C1237      C1244   1.445       .  S
C1238      C1239   1.404       .  A
C1239      C1240   1.407       .  A
C1239      H1242   1.086       .  S
C1240      C1243   1.444       .  S
C1243      N1245   1.157       .  T
C1244      N1246   1.157       .  T
N1247      C1251   1.356       .  A
N1247      C1248   1.358       .  A
N1247      C1319   1.444       .  S
C1248      C1249   1.386       .  A
C1248      C1416   1.486       .  S
C1249      C1250   1.377       .  A
C1249      H1252   1.082       .  S
C1250      C1251   1.377       .  A
C1250      H1253   1.082       .  S
C1251      C1294   1.468       .  S
N1254      C1258   1.359       .  A
N1254      C1322   1.448       .  S
C1255      C1256   1.387       .  A
C1255      C1401   1.488       .  S
C1256      C1257   1.369       .  A
C1256      H1259   1.083       .  S
C1257      H1260   1.082       .  S
C1258      C1296   1.460       .  S
C1261      C1262   1.416       .  A
C1261      C1266   1.418       .  A
C1261      C1404   1.524       .  S
C1262      C1263   1.412       .  A
C1262      H1267   1.076       .  S
C1263      C1264   1.403       .  A
C1263      C1413   1.504       .  S
C1264      C1265   1.402       .  A
C1264      H1268   1.079       .  S
C1265      C1266   1.408       .  A
C1265      C1389   1.503       .  S
C1266      H1269   1.080       .  S
N1270      C1274   1.358   1_565  A
N1270      C1271   1.360       .  A
N1270      C1317   1.449       .  S
C1271      C1272   1.385       .  A
C1271      C1392   1.477       .  S
C1272      C1273   1.372   1_565  A
C1272      H1275   1.083       .  S
C1273      C1274   1.376       .  A
C1273      H1276   1.082       .  S
C1274      C1295   1.462       .  S
Zn1277     O1282   2.006   1_554  S
Zn1277     O1286   2.012   1_554  S
Zn1278     O1285   2.035   1_554  S
Zn1279     O1284   1.999   1_554  S
Zn1280     O1291   2.007       .  S
Zn1280     O1292   2.015       .  S
Zn1280     O1281   1.941       .  S
O1282      C1294   1.270       .  A
O1283      C1295   1.270       .  A
O1285      C1294   1.276       .  A
O1286      C1296   1.273       .  A
O1287      C1295   1.274   1_565  A
O1288      C1297   1.273       .  A
O1289      C1298   1.276       .  A
O1290      C1297   1.274       .  A
O1292      C1299   1.274       .  A
O1293      C1299   1.273       .  A
C1297      N1346   1.442       .  S
C1298      N1330   1.443       .  S
C1299      N1323   1.441       .  S
Zn1300     O1309   2.026       .  S
Zn1300     O1316   2.030       .  S
Zn1300     O1304   1.942       .  S
Zn1301     O1312   2.029   1_545  S
Zn1302     O1307   2.033       .  S
Zn1302     O1310   2.008       .  S
Zn1302     O1313   2.026       .  S
Zn1302     O1304   1.971       .  S
Zn1303     O1311   2.001       .  S
Zn1303     O1315   2.043       .  S
Zn1303     O1304   1.977       .  S
O1307      C1319   1.274       .  A
O1308      C1317   1.278   1_545  A
O1309      C1319   1.275       .  A
O1311      C1320   1.269       .  A
O1312      C1321   1.274       .  A
O1313      C1320   1.275       .  A
O1314      C1321   1.275       .  A
O1315      C1322   1.274       .  A
O1316      C1322   1.276       .  A
C1318      C1334   1.473       .  S
C1320      C1327   1.465       .  S
C1321      C1350   1.470       .  S
N1323      C1327   1.354       .  A
N1323      C1324   1.355       .  A
C1324      C1325   1.387       .  A
C1324      C1377   1.479       .  S
C1325      C1326   1.378       .  A
C1325      H1328   1.083       .  S
C1326      C1327   1.377       .  A
C1326      H1329   1.082       .  S
N1330      C1334   1.358       .  A
N1330      C1331   1.360       .  A
C1331      C1332   1.387       .  A
C1331      C1365   1.485   1_455  S
C1332      C1333   1.376       .  A
C1332      H1335   1.083       .  S
C1333      C1334   1.377       .  A
C1333      H1336   1.082       .  S
C1337      C1338   1.409       .  A
C1337      C1342   1.410       .  A
C1337      C1368   1.506       .  S
C1338      C1339   1.410       .  A
C1338      H1343   1.080       .  S
C1339      C1340   1.407       .  A
C1339      C1380   1.503       .  S
C1340      C1341   1.405       .  A
C1340      H1344   1.082       .  S
C1341      C1342   1.409       .  A
C1341      C1356   1.506       .  S
C1342      H1345   1.082       .  S
N1346      C1350   1.358       .  A
N1346      C1347   1.356       .  A
C1347      C1348   1.386       .  A
C1348      C1349   1.377       .  A
C1349      C1350   1.378       .  A
C1349      H1352   1.082       .  S
C1353      C1354   1.399       .  A
C1353      C1358   1.406       .  A
C1354      C1355   1.398       .  A
C1355      C1356   1.423       .  A
C1355      C1362   1.445       .  S
C1356      C1357   1.414       .  A
C1357      C1358   1.408       .  A
C1357      H1360   1.084       .  S
C1358      C1361   1.443       .  S
C1361      N1363   1.157       .  T
C1362      N1364   1.158       .  T
C1365      C1366   1.400       .  A
C1365      C1370   1.408   1_655  A
C1366      C1367   1.401       .  A
C1366      H1371   1.086       .  S
C1367      C1368   1.423       .  A
C1367      C1374   1.445       .  S
C1368      C1369   1.411       .  A
C1369      C1370   1.408   1_655  A
C1369      H1372   1.085       .  S
C1370      C1373   1.442       .  S
C1373      N1375   1.157       .  T
C1374      N1376   1.158       .  T
C1377      C1378   1.403       .  A
C1377      C1382   1.407       .  A
C1378      C1379   1.408       .  A
C1378      H1383   1.084       .  S
C1379      C1380   1.417       .  A
C1379      C1386   1.443       .  S
C1380      C1381   1.411       .  A
C1381      C1382   1.394       .  A
C1381      H1384   1.083       .  S
C1382      C1385   1.446       .  S
C1385      N1387   1.157       .  T
C1386      N1388   1.157       .  T
C1389      C1390   1.411       .  A
C1389      C1394   1.419       .  A
C1390      C1391   1.398       .  A
C1390      H1395   1.084       .  S
C1391      C1392   1.408       .  A
C1391      C1398   1.445       .  S
C1392      C1393   1.402       .  A
C1393      C1394   1.405       .  A
C1393      H1396   1.085   1_565  S
C1394      C1397   1.444       .  S
C1397      N1399   1.157       .  T
C1398      N1400   1.157       .  T
C1401      C1402   1.399       .  A
C1401      C1406   1.409       .  A
C1402      C1403   1.402       .  A
C1402      H1407   1.087       .  S
C1403      C1404   1.428       .  A
C1403      C1410   1.441       .  S
C1404      C1405   1.417       .  A
C1405      C1406   1.406       .  A
C1405      H1408   1.084       .  S
C1406      C1409   1.444       .  S
C1409      N1411   1.157       .  T
C1410      N1412   1.158       .  T
C1413      C1414   1.408       .  A
C1413      C1418   1.419       .  A
C1414      C1415   1.399       .  A
C1414      H1419   1.084       .  S
C1415      C1416   1.411       .  A
C1415      C1422   1.445       .  S
C1416      C1417   1.404       .  A
C1417      C1418   1.407       .  A
C1417      H1420   1.086       .  S
C1418      C1421   1.444       .  S
C1421      N1423   1.157       .  T
C1422      N1424   1.157       .  T
