geometry optimzed in LAMMPS
_audit_creation_date              2020-12-01 
_audit_creation_method            'lammps2cif' 
_symmetry_space_group_name_H-M    'P1' 
_symmetry_Int_Tables_number       1 
_symmetry_cell_setting            triclinic 
loop_ 
_symmetry_equiv_pos_as_xyz 
  x,y,z 
_cell_length_a                    24.46575317 
_cell_length_b                    24.682532534057177 
_cell_length_c                    44.20588566346732 
_cell_angle_alpha                 90.57761808589058 
_cell_angle_beta                  89.7032137772619 
_cell_angle_gamma                 90.00680438280702 
loop_ 
_atom_site_label 
_atom_site_type_symbol 
_atom_site_fract_x 
_atom_site_fract_y 
_atom_site_fract_z 
_atom_site_charge 
C1          C  0.61400341  0.31502959  0.00719877     0.79400
N2          N  0.66811495  0.32771919  0.00819063    -0.78900
C3          C  0.68426263  0.38046455  0.50993275     0.81800
N4          N  0.64590584  0.42037181  0.50995511    -0.78900
C5          C  0.59196641  0.40789770  0.00846294     0.81900
N6          N  0.57631167  0.35532946  0.00680387    -0.80600
C7          C  0.90964644  0.81348480  0.24570219     0.79400
N8          N  0.94837714  0.85291992  0.24522222    -0.78900
C9          C  0.93364775  0.90589651  0.24451630     0.81800
N10         N  0.88001609  0.91925715  0.24535387    -0.78900
C11         C  0.84093759  0.88043736  0.24659797     0.81900
N12         N  0.85583655  0.82737963  0.24644991    -0.80600
C13         C  0.33514990  0.59842684  0.49698773     0.79400
N14         N  0.37505304  0.56012101  0.49695287    -0.78900
C15         C  0.42828809  0.57474940  0.99971811     0.81800
N16         N  0.44155745  0.62789424  0.00251168    -0.78900
C17         C  0.40208248  0.66661557  0.00245948     0.81900
N18         N  0.34881267  0.65164064  0.99981028    -0.80600
O19         O  0.53332827  0.02606494  0.29326246    -0.73800
O20         O  0.52567049  0.03129389  0.20247709    -0.74800
O21         O  0.45289025  0.05606913  0.25047730    -0.63400
O22         O  0.60658867  0.00139039  0.24528499    -0.71800
O23         O  0.57645716  0.91661400  0.24449726    -0.71300
O24         O  0.42242224  0.97145089  0.24878577    -0.62600
O25         O  0.49618263  0.94641226  0.20131943    -0.75100
O26         O  0.50139780  0.94188678  0.29206060    -0.73900
Cu27       Cu  0.53081824  0.03160339  0.24788583     1.04600
Cu28       Cu  0.49819892  0.94109118  0.24660403     1.04300
C29         C  0.51792566  0.98331218  0.30698242     0.92400
C30         C  0.50849203  0.99006493  0.18757642     0.91600
C31         C  0.41330319  0.02234067  0.25053544     0.83700
C32         C  0.61593812  0.95048481  0.24425958     0.90000
O33         O  0.43355226  0.92952101  0.99700886    -0.73800
O34         O  0.48624913  0.08406560  0.49688727    -0.74800
O35         O  0.46300292  0.00439080  0.45115360    -0.63400
O36         O  0.45688801  0.00837343  0.04231932    -0.71800
O37         O  0.54379089  0.98241506  0.04344056    -0.71300
O38         O  0.54890708  0.97586970  0.45292889    -0.62600
O39         O  0.57231743  0.05566340  0.99737164    -0.75100
O40         O  0.51979497  0.90208314  0.99894958    -0.73900
Cu41       Cu  0.45684036  0.00768952  0.49673810     1.04600
Cu42       Cu  0.54907640  0.97799319  0.99823279     1.04300
C43         C  0.46873686  0.89132478  0.99787275     0.92400
C44         C  0.53753413  0.09418852  0.99713251     0.91600
C45         C  0.50673825  0.98871286  0.43769439     0.83700
C46         C  0.49988131  0.99646554  0.05713944     0.90000
C47         C  0.12214605  0.16612343  0.25067052     0.79400
N48         N  0.17569287  0.15133261  0.25023128    -0.78900
C49         C  0.18983357  0.09807309  0.24985317     0.81800
N50         N  0.15004028  0.05986211  0.25043419    -0.78900
C51         C  0.09661632  0.07411519  0.25116032     0.81900
N52         N  0.08278039  0.12730795  0.25077278    -0.80600
O53         O  0.05979613  0.50598031  0.20529702    -0.73800
O54         O  0.05730374  0.50212108  0.29623953    -0.74800
O55         O  0.08594283  0.42802603  0.24948405    -0.63400
O56         O  0.03125913  0.58109485  0.25220317    -0.71800
O57         O  0.94550628  0.55184652  0.25070546    -0.71300
O58         O  0.00022594  0.39865896  0.24837263    -0.62600
O59         O  0.97133462  0.47350961  0.29506269    -0.75100
O60         O  0.97401478  0.47676770  0.20453221    -0.73900
Cu61       Cu  0.06154231  0.50548928  0.25085876     1.04600
Cu62       Cu  0.96979430  0.47420922  0.24967562     1.04300
C63         C  0.01744572  0.49102861  0.19058724     0.92400
C64         C  0.01404773  0.48654764  0.30996150     0.91600
C65         C  0.05158373  0.38914575  0.24815307     0.83700
C66         C  0.97994023  0.59070188  0.25186952     0.90000
O67         O  0.02559756  0.44215924  0.45475558    -0.73800
O68         O  0.02931430  0.44501808  0.04557422    -0.74800
O69         O  0.95007204  0.41488643  0.00133226    -0.63400
O70         O  0.10389094  0.47204437  0.49874267    -0.71800
O71         O  0.07201404  0.55630209  0.49976272    -0.71300
O72         O  0.91877071  0.49926725  0.00146661    -0.62600
O73         O  0.99631014  0.52881471  0.04575166    -0.75100
O74         O  0.99382610  0.52642031  0.45499907    -0.73900
Cu75       Cu  0.02832503  0.44054138  0.00009185     1.04600
Cu76       Cu  0.99417618  0.53062720  0.50045261     1.04300
C77         C  0.00897925  0.48382864  0.44057462     0.92400
C78         C  0.01299965  0.48722770  0.05996857     0.91600
C79         C  0.91009476  0.44824469  0.50175753     0.83700
C80         C  0.11210440  0.52315975  0.49919628     0.90000
C81         C  0.01795115  0.49002208  0.15717811    -0.07000
C82         C  0.97110834  0.50785743  0.14203842    -0.18100
C83         C  0.96815763  0.50655230  0.11047912     0.10200
C84         C  0.01339178  0.48792482  0.09333996    -0.06900
C85         C  0.06019334  0.46981594  0.10840327    -0.18100
C86         C  0.06281438  0.47018064  0.14005187     0.10300
S87         S  0.90449877  0.52631185  0.09350387    -0.33100
S88         S  0.12340206  0.44250031  0.15705370    -0.33100
H89         H  0.09563647  0.41624639  0.18066638     0.28300
H90         H  0.90595546  0.48522502  0.07126039     0.28300
H91         H  0.93615965  0.52239539  0.15493557     0.18900
H92         H  0.09489373  0.45499337  0.09540430     0.18900
C93         C  0.01297078  0.48376561  0.34333297    -0.07000
C94         C  0.96633090  0.50255030  0.35880961    -0.18100
C95         C  0.96332769  0.50200379  0.39043556     0.10200
C96         C  0.00827219  0.48286099  0.40720142    -0.06900
C97         C  0.05442230  0.46299207  0.39173277    -0.18100
C98         C  0.05713012  0.46285637  0.36010675     0.10300
S99         S  0.90045127  0.52468065  0.40788337    -0.33100
S100        S  0.11706322  0.43353864  0.34258847    -0.33100
H101        H  0.08842443  0.40844528  0.31876507     0.28300
H102        H  0.90172562  0.48783303  0.43191329     0.28300
H103        H  0.93192249  0.51797047  0.34614606     0.18900
H104        H  0.08882637  0.44760214  0.40441791     0.18900
C105        C  0.10617279  0.22379693  0.24995041    -0.07000
C106        C  0.06301312  0.23866289  0.23095196    -0.18100
C107        C  0.04590238  0.29251167  0.22892444     0.10200
C108        C  0.07147172  0.33272082  0.24688969    -0.06900
C109        C  0.11557360  0.31817717  0.26530881    -0.18100
C110        C  0.13263395  0.26422558  0.26739475     0.10300
S111        S  0.99291452  0.30739659  0.20202264    -0.33100
S112        S  0.18560137  0.24937926  0.29427743    -0.33100
H113        H  0.16214794  0.20051336  0.30408539     0.28300
H114        H  0.01405047  0.35812274  0.19368932     0.28300
H115        H  0.04312046  0.20816976  0.21704049     0.18900
H116        H  0.13537452  0.34868783  0.27923073     0.18900
C117        C  0.24772953  0.08071899  0.24995267    -0.07000
C118        C  0.26088691  0.03324681  0.26560945    -0.18100
C119        C  0.31448699  0.01419642  0.26699339     0.10200
C120        C  0.35657259  0.04258675  0.25196245    -0.06900
C121        C  0.34376079  0.09048778  0.23665564    -0.18100
C122        C  0.28992583  0.10936739  0.23506372     0.10300
S123        S  0.32650145  0.95490860  0.28950646    -0.33100
S124        S  0.27772565  0.16779882  0.21192899    -0.33100
H125        H  0.22998919  0.14669792  0.19865232     0.28300
H126        H  0.37593995  0.97422009  0.30155588     0.28300
H127        H  0.22925639  0.01119929  0.27751672     0.18900
H128        H  0.37560874  0.11219560  0.22469893     0.18900
C129        C  0.50309840  0.99322078  0.15421652    -0.07000
C130        C  0.53919149  0.02694563  0.13826056    -0.18100
C131        C  0.53733007  0.03042552  0.10671522     0.10200
C132        C  0.49927583  0.99881795  0.09042184    -0.06900
C133        C  0.46197020  0.96647550  0.10620462    -0.18100
C134        C  0.46299482  0.96376174  0.13783572     0.10300
S135        S  0.58383628  0.07669783  0.08852687    -0.33100
S136        S  0.41085017  0.92345229  0.15575216    -0.33100
H137        H  0.40053876  0.96129489  0.17912440     0.28300
H138        H  0.54806065  0.09082638  0.06509819     0.28300
H139        H  0.56942484  0.05060384  0.15041255     0.18900
H140        H  0.43215312  0.94272760  0.09376913     0.18900
C141        C  0.51742719  0.98225601  0.34040116    -0.07000
C142        C  0.47016721  0.96367082  0.35512375    -0.18100
C143        C  0.46562651  0.96481550  0.38670219     0.10200
C144        C  0.50922520  0.98542573  0.40426103    -0.06900
C145        C  0.55711761  0.00267486  0.38953239    -0.18100
C146        C  0.56180129  0.00102604  0.35793503     0.10300
S147        S  0.40392234  0.93765972  0.40308117    -0.33100
S148        S  0.62606398  0.02145905  0.34145428    -0.33100
H149        H  0.62471093  0.98362161  0.31746019     0.28300
H150        H  0.43017883  0.91245168  0.42742395     0.28300
H151        H  0.43626900  0.94833100  0.34191126     0.18900
H152        H  0.59122839  0.01764858  0.40275017     0.18900
C153        C  0.45045980  0.83419831  0.99789136    -0.07000
C154        C  0.40418635  0.81985764  0.01500350    -0.18100
C155        C  0.38801121  0.76557074  0.01772780     0.10200
C156        C  0.41802592  0.72450612  0.00246438    -0.06900
C157        C  0.46394451  0.73913211  0.48519925    -0.18100
C158        C  0.47985191  0.79316989  0.48234390     0.10300
S159        S  0.33083644  0.75137304  0.04230458    -0.33100
S160        S  0.53612475  0.80712422  0.45707277    -0.33100
H161        H  0.51350788  0.85504443  0.44554694     0.28300
H162        H  0.35232989  0.70264506  0.05342420     0.28300
H163        H  0.38163264  0.85093380  0.02724529     0.18900
H164        H  0.48664243  0.70830111  0.47284333     0.18900
C165        C  0.27716494  0.58197671  0.49555481    -0.07000
C166        C  0.24063708  0.60322660  0.01721832    -0.18100
C167        C  0.18679762  0.58427171  0.01923757     0.10200
C168        C  0.16853358  0.54390498  0.49877036    -0.06900
C169        C  0.20468048  0.52341534  0.47680623    -0.18100
C170        C  0.25827656  0.54263584  0.47463264     0.10300
S171        S  0.14459173  0.61064102  0.04953865    -0.33100
S172        S  0.29926748  0.51751190  0.44361091    -0.33100
H173        H  0.32850403  0.56598758  0.43950279     0.28300
H174        H  0.11762739  0.56146508  0.05537535     0.28300
H175        H  0.25481276  0.63307457  0.03353294     0.18900
H176        H  0.19055029  0.49325909  0.46064644     0.18900
C177        C  0.97551739  0.94884796  0.24503375    -0.07000
C178        C  0.02050268  0.94251406  0.26420157    -0.16900
C179        C  0.05914272  0.98369949  0.26778650     0.10200
C180        C  0.05403051  0.03188645  0.25100540    -0.06900
C181        C  0.00880176  0.03847590  0.23203948    -0.18100
C182        C  0.96987048  0.99745393  0.22864296     0.10300
S183        S  0.11187270  0.97340217  0.29551171    -0.33100
S184        S  0.91577455  0.00874174  0.20186641    -0.33100
H185        H  0.91374383  0.95475373  0.19140914     0.28300
H186        H  0.11423527  0.02792322  0.30503012     0.28300
H187        H  0.02444199  0.90603324  0.27745713     0.18900
H188        H  0.00481755  0.07504529  0.21886270     0.18900
C189        C  0.78279564  0.89637651  0.24779757    -0.07000
C190        C  0.74488197  0.86719568  0.23034097    -0.18100
C191        C  0.69049503  0.88438633  0.22805802     0.10200
C192        C  0.67308661  0.93121022  0.24411165    -0.06900
C193        C  0.71092633  0.95986341  0.26182444    -0.18100
C194        C  0.76499524  0.94259152  0.26427830     0.10300
S195        S  0.64656415  0.84686579  0.20282037    -0.33100
S196        S  0.80815463  0.97992291  0.29009073    -0.33100
H197        H  0.83666714  0.93414354  0.30029231     0.28300
H198        H  0.61921907  0.89275299  0.19183775     0.28300
H199        H  0.75821967  0.83213064  0.21735369     0.18900
H200        H  0.69786941  0.99517521  0.27469031     0.18900
C201        C  0.96028261  0.64722805  0.25200643    -0.07000
C202        C  0.91861691  0.66145926  0.23186448    -0.18100
C203        C  0.90197629  0.71539099  0.22883548     0.10200
C204        C  0.92643596  0.75611509  0.24692902    -0.06900
C205        C  0.96762368  0.74173442  0.26732894    -0.18100
C206        C  0.98422238  0.68785588  0.27036254     0.10300
S207        S  0.85203212  0.72988312  0.20016493    -0.33100
S208        S  0.03416821  0.67330994  0.29903402    -0.33100
H209        H  0.01183378  0.62282828  0.30696989     0.28300
H210        H  0.87494345  0.77982464  0.19173772     0.28300
H211        H  0.90049829  0.63065330  0.21742608     0.18900
H212        H  0.98604186  0.77257186  0.28163092     0.18900
C213        C  0.55049409  0.45095558  0.00692762    -0.07000
C214        C  0.51671389  0.45234180  0.48143074    -0.18100
C215        C  0.47787255  0.49331019  0.47793926     0.10200
C216        C  0.47140212  0.53315688  0.00083537    -0.06900
C217        C  0.50546887  0.53200568  0.02623962    -0.18100
C218        C  0.54432460  0.49096449  0.02974253     0.10300
S219        S  0.44021528  0.49401442  0.44306365    -0.33100
S220        S  0.58197628  0.49008550  0.06463502    -0.33100
H221        H  0.58746366  0.43344635  0.06593991     0.28300
H222        H  0.43488402  0.55067239  0.44176992     0.28300
H223        H  0.52168151  0.42205881  0.46369355     0.18900
H224        H  0.50033353  0.56214489  0.04403566     0.18900
C225        C  0.85315068  0.42846707  0.50369225    -0.07000
C226        C  0.81718902  0.45623500  0.02315145    -0.18100
C227        C  0.76331249  0.43912837  0.02718595     0.10200
C228        C  0.74313115  0.39478029  0.51011917    -0.06900
C229        C  0.77930608  0.36625213  0.49095729    -0.18100
C230        C  0.83389246  0.38267201  0.48747256     0.10300
S231        S  0.72381944  0.47371246  0.05590709    -0.33100
S232        S  0.87557185  0.34562448  0.46062135    -0.33100
H233        H  0.90392668  0.39115520  0.44987034     0.28300
H234        H  0.69555025  0.42704472  0.06519813     0.28300
H235        H  0.83158780  0.49086659  0.03606787     0.18900
H236        H  0.76440828  0.33231953  0.47761272     0.18900
C237        C  0.59574736  0.25795621  0.00592144    -0.07000
C238        C  0.62186299  0.22194060  0.48577081    -0.18100
C239        C  0.60258638  0.16893747  0.48157844     0.10200
C240        C  0.55681635  0.15087279  0.99835368    -0.06900
C241        C  0.53094746  0.18680134  0.01859555    -0.18100
C242        C  0.55034070  0.23959580  0.02292363     0.10300
S243        S  0.63628981  0.12739685  0.45334490    -0.33100
S244        S  0.51716537  0.28034760  0.05173348    -0.33100
H245        H  0.56500443  0.30712703  0.06117963     0.28300
H246        H  0.58856556  0.10066722  0.44368578     0.28300
H247        H  0.65622451  0.23578173  0.47236853     0.18900
H248        H  0.49664921  0.17296294  0.03205882     0.18900
C249        C  0.61400696  0.31503166  0.50718814     0.79400
N250        N  0.66811882  0.32772003  0.50818296    -0.78900
C251        C  0.68425785  0.38046377  0.00994026     0.81800
N252        N  0.64590013  0.42037007  0.00996523    -0.78900
C253        C  0.59197212  0.40790041  0.50844932     0.81900
N254        N  0.57631670  0.35533254  0.50679004    -0.80600
C255        C  0.90965133  0.81347177  0.74570999     0.79400
N256        N  0.94838531  0.85290372  0.74522717    -0.78900
C257        C  0.93365978  0.90588132  0.74451963     0.81800
N258        N  0.88002935  0.91924622  0.74535842    -0.78900
C259        C  0.84094774  0.88043014  0.74660581     0.81900
N260        N  0.85584257  0.82737113  0.74645912    -0.80600
C261        C  0.33514556  0.59842431  0.99700728     0.79400
N262        N  0.37504980  0.56011965  0.99697280    -0.78900
C263        C  0.42829143  0.57474939  0.49970056     0.81800
N264        N  0.44156149  0.62789358  0.50249716    -0.78900
C265        C  0.40208745  0.66661568  0.50244532     0.81900
N266        N  0.34881791  0.65164227  0.49979359    -0.80600
O267        O  0.53333365  0.02607638  0.79325809    -0.73800
O268        O  0.52567321  0.03127643  0.70247078    -0.74800
O269        O  0.45289753  0.05606554  0.75046804    -0.63400
O270        O  0.60659751  0.00138913  0.74528191    -0.71800
O271        O  0.57646920  0.91661163  0.74450735    -0.71300
O272        O  0.42243297  0.97144566  0.74877993    -0.62600
O273        O  0.49620436  0.94639005  0.70132158    -0.75100
O274        O  0.50139995  0.94189939  0.79206321    -0.73900
Cu275      Cu  0.53082491  0.03160068  0.74787986     1.04600
Cu276      Cu  0.49821093  0.94108709  0.74660667     1.04300
C277        C  0.51792668  0.98332876  0.80698186     0.92400
C278        C  0.50850078  0.99004066  0.68757345     0.91600
C279        C  0.41331213  0.02233559  0.75052561     0.83700
C280        C  0.61594893  0.95048346  0.74426398     0.90000
O281        O  0.43355177  0.92952050  0.49700328    -0.73800
O282        O  0.48625348  0.08406392  0.99689196    -0.74800
O283        O  0.46299793  0.00439362  0.95115735    -0.63400
O284        O  0.45687506  0.00837322  0.54231424    -0.71800
O285        O  0.54378014  0.98242101  0.54344107    -0.71300
O286        O  0.54890237  0.97587240  0.95292776    -0.62600
O287        O  0.57231321  0.05566629  0.49737132    -0.75100
O288        O  0.51979503  0.90208603  0.49895102    -0.73900
Cu289      Cu  0.45684353  0.00768944  0.99674294     1.04600
Cu290      Cu  0.54907400  0.97799605  0.49823377     1.04300
C291        C  0.46873776  0.89132579  0.49787005     0.92400
C292        C  0.53752975  0.09419104  0.49712886     0.91600
C293        C  0.50673212  0.98871937  0.93769547     0.83700
C294        C  0.49986523  0.99646442  0.55713664     0.90000
C295        C  0.12215436  0.16610906  0.75066285     0.79400
N296        N  0.17570165  0.15131984  0.75021925    -0.78900
C297        C  0.18984309  0.09806048  0.74984028     0.81800
N298        N  0.15005131  0.05984844  0.75042413    -0.78900
C299        C  0.09662743  0.07410015  0.75115385     0.81900
N300        N  0.08278993  0.12729241  0.75076780    -0.80600
O301        O  0.05979731  0.50596234  0.70529807    -0.73800
O302        O  0.05729451  0.50209991  0.79624066    -0.74800
O303        O  0.08593774  0.42800787  0.74948501    -0.63400
O304        O  0.03125427  0.58107640  0.75220444    -0.71800
O305        O  0.94550126  0.55182917  0.75070406    -0.71300
O306        O  0.00022093  0.39864120  0.74837171    -0.62600
O307        O  0.97132508  0.47348985  0.79506184    -0.75100
O308        O  0.97401542  0.47675115  0.70453052    -0.73900
Cu309      Cu  0.06153761  0.50547050  0.75085999     1.04600
Cu310      Cu  0.96978943  0.47419145  0.74967423     1.04300
C311        C  0.01744825  0.49101125  0.69058696     0.92400
C312        C  0.01403782  0.48652559  0.80996168     0.91600
C313        C  0.05157866  0.38912775  0.74815288     0.83700
C314        C  0.97993549  0.59068419  0.75186989     0.90000
O315        O  0.02559863  0.44214735  0.95475876    -0.73800
O316        O  0.02932713  0.44501708  0.54557098    -0.74800
O317        O  0.95007753  0.41489200  0.50133118    -0.63400
O318        O  0.10388515  0.47203983  0.99874997    -0.71800
O319        O  0.07200832  0.55629758  0.99976653    -0.71300
O320        O  0.91877562  0.49927266  0.50147110    -0.62600
O321        O  0.99632550  0.52881451  0.54575236    -0.75100
O322        O  0.99382859  0.52640883  0.95499785    -0.73900
Cu323      Cu  0.02833069  0.44054661  0.50008813     1.04600
Cu324      Cu  0.99417039  0.53062195  0.00045159     1.04300
C325        C  0.00898098  0.48381450  0.94057552     0.92400
C326        C  0.01301458  0.48722529  0.55996747     0.91600
C327        C  0.91008959  0.44823947  0.00175556     0.83700
C328        C  0.11209875  0.52315524  0.99920426     0.90000
C329        C  0.01795718  0.49000589  0.65717786    -0.07000
C330        C  0.97112273  0.50785876  0.64203724    -0.18100
C331        C  0.96817519  0.50655832  0.61047788     0.10200
C332        C  0.01340479  0.48791756  0.59333924    -0.06900
C333        C  0.06019787  0.46978990  0.60840371    -0.18100
C334        C  0.06281521  0.47015003  0.64005257     0.10300
S335        S  0.90452440  0.52634082  0.59350192    -0.33100
S336        S  0.12339047  0.44244634  0.65705610    -0.33100
H337        H  0.09561441  0.41620959  0.68067102     0.28300
H338        H  0.90596741  0.48525223  0.57125925     0.28300
H339        H  0.93617756  0.52240741  0.65493388     0.18900
H340        H  0.09489480  0.45495626  0.59540535     0.18900
C341        C  0.01296089  0.48373970  0.84333324    -0.07000
C342        C  0.96632211  0.50252397  0.85881105    -0.18100
C343        C  0.96332254  0.50197926  0.89043721     0.10200
C344        C  0.00827004  0.48284040  0.90720216    -0.06900
C345        C  0.05441756  0.46296839  0.89173234    -0.18100
C346        C  0.05712109  0.46282940  0.86010606     0.10300
S347        S  0.90044656  0.52465311  0.90788676    -0.33100
S348        S  0.11705002  0.43350625  0.84258610    -0.33100
H349        H  0.08840732  0.40841592  0.81876310     0.28300
H350        H  0.90172634  0.48780694  0.93191729     0.28300
H351        H  0.93191234  0.51794307  0.84614841     0.18900
H352        H  0.08882275  0.44757910  0.90441660     0.18900
C353        C  0.10617805  0.22378175  0.74994472    -0.07000
C354        C  0.06300816  0.23864451  0.73095260    -0.18100
C355        C  0.04589227  0.29249176  0.72892737     0.10200
C356        C  0.07146728  0.33270306  0.74688864    -0.06900
C357        C  0.11557853  0.31816251  0.76530183    -0.18100
C358        C  0.13264408  0.26421224  0.76738540     0.10300
S359        S  0.99289028  0.30737149  0.70203316    -0.33100
S360        S  0.18562516  0.24937005  0.79426059    -0.33100
H361        H  0.16217862  0.20050368  0.80407275     0.28300
H362        H  0.01402374  0.35809488  0.69369283     0.28300
H363        H  0.04311099  0.20814981  0.71704405     0.18900
H364        H  0.13538371  0.34867461  0.77922091     0.18900
C365        C  0.24773830  0.08070740  0.74993818    -0.07000
C366        C  0.26089975  0.03324711  0.76560472    -0.18100
C367        C  0.31450025  0.01419916  0.76698909     0.10200
C368        C  0.35658139  0.04257963  0.75194890    -0.06900
C369        C  0.34376541  0.09046819  0.73663099    -0.18100
C370        C  0.28992941  0.10934512  0.73503866     0.10300
S371        S  0.32652215  0.95492891  0.78951513    -0.33100
S372        S  0.27771993  0.16775819  0.71189102    -0.33100
H373        H  0.22997176  0.14665307  0.69862937     0.28300
H374        H  0.37596329  0.97425114  0.80155570     0.28300
H375        H  0.22927244  0.01120834  0.77751958     0.18900
H376        H  0.37561012  0.11216722  0.72466713     0.18900
C377        C  0.50309716  0.99318937  0.65421213    -0.07000
C378        C  0.53909972  0.02701450  0.63825904    -0.18100
C379        C  0.53722422  0.03050456  0.60671441     0.10200
C380        C  0.49925118  0.99880733  0.59041808    -0.06900
C381        C  0.46203528  0.96635867  0.60619586    -0.18100
C382        C  0.46306968  0.96363287  0.63782640     0.10300
S383        S  0.58361082  0.07689791  0.58852965    -0.33100
S384        S  0.41103227  0.92317595  0.65573320    -0.33100
H385        H  0.40057824  0.96101016  0.67909056     0.28300
H386        H  0.54780605  0.09092913  0.56509633     0.28300
H387        H  0.56927339  0.05074605  0.65041217     0.18900
H388        H  0.43228177  0.94253817  0.59375664     0.18900
C389        C  0.51742255  0.98228106  0.84040113    -0.07000
C390        C  0.47016308  0.96369116  0.85512277    -0.18100
C391        C  0.46562065  0.96483234  0.88670130     0.10200
C392        C  0.50921745  0.98544233  0.90426155    -0.06900
C393        C  0.55710799  0.00269967  0.88953384    -0.18100
C394        C  0.56179313  0.00105540  0.85793635     0.10300
S395        S  0.40391756  0.93767068  0.90307845    -0.33100
S396        S  0.62605448  0.02149734  0.84145745    -0.33100
H397        H  0.62471136  0.98365766  0.81746422     0.28300
H398        H  0.43017419  0.91246080  0.92742056     0.28300
H399        H  0.43626787  0.94834777  0.84190971     0.18900
H400        H  0.59121688  0.01767451  0.90275253     0.18900
C401        C  0.45046353  0.83419879  0.49788666    -0.07000
C402        C  0.40418501  0.81985611  0.51499397    -0.18100
C403        C  0.38801094  0.76556863  0.51771585     0.10200
C404        C  0.41803137  0.72450588  0.50245433    -0.06900
C405        C  0.46393324  0.73913049  0.98520404    -0.18100
C406        C  0.47984107  0.79316774  0.98234587     0.10300
S407        S  0.33082990  0.75136793  0.54228762    -0.33100
S408        S  0.53610458  0.80711952  0.95706796    -0.33100
H409        H  0.51348645  0.85504183  0.94554554     0.28300
H410        H  0.35232259  0.70264062  0.55340862     0.28300
H411        H  0.38162652  0.85093076  0.52723385     0.18900
H412        H  0.48662645  0.70829777  0.97284626     0.18900
C413        C  0.27716090  0.58197176  0.99557305    -0.07000
C414        C  0.24064688  0.60322613  0.51720455    -0.18100
C415        C  0.18680812  0.58427140  0.51922651     0.10200
C416        C  0.16852843  0.54390000  0.99878298    -0.06900
C417        C  0.20468176  0.52340367  0.97682431    -0.18100
C418        C  0.25827799  0.54262379  0.97465339     0.10300
S419        S  0.14461008  0.61063404  0.54953274    -0.33100
S420        S  0.29927571  0.51749012  0.94363707    -0.33100
H421        H  0.32850545  0.56596820  0.93952319     0.28300
H422        H  0.11764830  0.56145647  0.55536879     0.28300
H423        H  0.25482707  0.63306941  0.53352079     0.18900
H424        H  0.19055629  0.49324252  0.96066598     0.18900
C425        C  0.97553177  0.94883035  0.74503309    -0.07000
C426        C  0.02051820  0.94249889  0.76420034    -0.16900
C427        C  0.05915782  0.98368528  0.76778320     0.10200
C428        C  0.05404325  0.03187050  0.75100083    -0.06900
C429        C  0.00881433  0.03845683  0.73203490    -0.18100
C430        C  0.96988405  0.99743383  0.72864010     0.10300
S431        S  0.11189042  0.97339188  0.79550738    -0.33100
S432        S  0.91578796  0.00871719  0.70186304    -0.33100
H433        H  0.91375559  0.95472704  0.69140940     0.28300
H434        H  0.11425424  0.02791414  0.80502346     0.28300
H435        H  0.02445836  0.90601972  0.77745730     0.18900
H436        H  0.00482917  0.07502472  0.71885678     0.18900
C437        C  0.78280670  0.89637440  0.74780461    -0.07000
C438        C  0.74488936  0.86718448  0.73035519    -0.18100
C439        C  0.69050289  0.88437562  0.72807123     0.10200
C440        C  0.67309787  0.93120956  0.74411679    -0.06900
C441        C  0.71094117  0.95987297  0.76182213    -0.18100
C442        C  0.76501029  0.94260107  0.76427673     0.10300
S443        S  0.64656783  0.84684065  0.70284244    -0.33100
S444        S  0.80817457  0.97994833  0.79007954    -0.33100
H445        H  0.83668309  0.93417407  0.80029139     0.28300
H446        H  0.61922445  0.89272199  0.69185112     0.28300
H447        H  0.75822344  0.83211112  0.71737418     0.18900
H448        H  0.69788690  0.99519253  0.77468194     0.18900
C449        C  0.96027870  0.64721100  0.75200892    -0.07000
C450        C  0.91861441  0.66144673  0.73186707    -0.18100
C451        C  0.90197557  0.71537968  0.72884046     0.10200
C452        C  0.92643626  0.75610049  0.74693596    -0.06900
C453        C  0.96762181  0.74171512  0.76733612    -0.18100
C454        C  0.98421794  0.68783531  0.77036772     0.10300
S455        S  0.85203209  0.72987785  0.70017052    -0.33100
S456        S  0.03415970  0.67328284  0.79904030    -0.33100
H457        H  0.01182178  0.62280108  0.80697310     0.28300
H458        H  0.87494556  0.77981947  0.69174524     0.28300
H459        H  0.90049541  0.63064343  0.71742695     0.18900
H460        H  0.98604043  0.77254995  0.78163973     0.18900
C461        C  0.55050001  0.45095838  0.50691235    -0.07000
C462        C  0.51670914  0.45234232  0.98144574    -0.18100
C463        C  0.47786996  0.49331267  0.97795468     0.10200
C464        C  0.47140482  0.53315636  0.50081886    -0.06900
C465        C  0.50547232  0.53200804  0.52622288    -0.18100
C466        C  0.54432905  0.49096819  0.52972659     0.10300
S467        S  0.44021705  0.49402259  0.94307776    -0.33100
S468        S  0.58197914  0.49009128  0.56461962    -0.33100
H469        H  0.58746335  0.43345197  0.56592629     0.28300
H470        H  0.43488465  0.55068072  0.94178699     0.28300
H471        H  0.52167674  0.42206073  0.96370764     0.18900
H472        H  0.50033653  0.56214837  0.54401832     0.18900
C473        C  0.85314539  0.42846349  0.00369146    -0.07000
C474        C  0.81719349  0.45623103  0.52315520    -0.18100
C475        C  0.76331654  0.43912254  0.52718689     0.10200
C476        C  0.74312608  0.39478026  0.01012341    -0.06900
C477        C  0.77930012  0.36624483  0.99096429    -0.18100
C478        C  0.83388667  0.38266241  0.98747736     0.10300
S479        S  0.72382075  0.47369703  0.55591045    -0.33100
S480        S  0.87556585  0.34560281  0.96063124    -0.33100
H481        H  0.90392278  0.39112816  0.94987490     0.28300
H482        H  0.69554600  0.42702768  0.56519390     0.28300
H483        H  0.83159136  0.49085821  0.53607541     0.18900
H484        H  0.76440175  0.33230710  0.97762384     0.18900
C485        C  0.59574815  0.25795868  0.50591230    -0.07000
C486        C  0.62185700  0.22194409  0.98577447    -0.18100
C487        C  0.60258223  0.16894073  0.98158077     0.10200
C488        C  0.55681249  0.15087578  0.49834702    -0.06900
C489        C  0.53093698  0.18681101  0.51858257    -0.18100
C490        C  0.55033304  0.23960467  0.52290998     0.10300
S491        S  0.63627684  0.12740808  0.95334038    -0.33100
S492        S  0.51715036  0.28036330  0.55171422    -0.33100
H493        H  0.56498879  0.30713820  0.56116539     0.28300
H494        H  0.58855053  0.10067710  0.94368564     0.28300
H495        H  0.65621221  0.23579031  0.97236906     0.18900
H496        H  0.49663186  0.17297845  0.53204213     0.18900
loop_ 
_geom_bond_atom_site_label_1 
_geom_bond_atom_site_label_2 
_geom_bond_distance 
_geom_bond_site_symmetry_2 
_ccdc_geom_bond_type 
C1            N2   1.361       .  A
C1            N6   1.357       .  A
C1          C237   1.478       .  S
N2          C251   1.362       .  A
C3            N4   1.361       .  A
C3          N250   1.362       .  A
C3          C228   1.483       .  S
N4          C253   1.357       .  A
C5            N6   1.354       .  A
C5          N252   1.357       .  A
C5          C213   1.472       .  S
C7            N8   1.359       .  A
C7           N12   1.361       .  A
C7          C204   1.476       .  S
N8            C9   1.357       .  A
C9           N10   1.353       .  A
C9          C177   1.474       .  S
N10          C11   1.355       .  A
C11          N12   1.359       .  A
C11         C189   1.476       .  S
C13          N14   1.359       .  A
C13         N266   1.360       .  A
C13         C165   1.477       .  S
N14         C263   1.357       .  A
C15          N16   1.356   1_556  A
C15         N262   1.357       .  A
C15         C216   1.473   1_556  S
N16          C17   1.359       .  A
C17          N18   1.360   1_554  A
C17         C156   1.481       .  S
N18         C261   1.360       .  A
O19         Cu27   2.013       .  S
O19          C29   1.278   1_545  A
O20         Cu27   2.012       .  S
O20          C30   1.279   1_545  A
O21         Cu27   2.002       .  S
O21          C31   1.277       .  A
O22         Cu27   2.001       .  S
O22          C32   1.277   1_545  A
O23         Cu28   2.009       .  S
O23          C32   1.277       .  A
O24         Cu28   2.001       .  S
O24          C31   1.277   1_565  A
O25         Cu28   2.008       .  S
O25          C30   1.277       .  A
O26         Cu28   2.011       .  S
O26          C29   1.278       .  A
Cu27        Cu28   2.372   1_545  S
C29         C141   1.478       .  S
C30         C129   1.484       .  S
C31         C120   1.476       .  S
C32         C192   1.477       .  S
O33        Cu289   2.012   1_565  S
O33          C43   1.278       .  A
O34         Cu41   2.018       .  S
O34         C292   1.279       .  A
O35         Cu41   2.021       .  S
O35          C45   1.280   1_545  A
O36        Cu289   2.015   1_554  S
O36          C46   1.278   1_545  A
O37         Cu42   2.004   1_554  S
O37          C46   1.277       .  A
O38        Cu290   2.003       .  S
O38          C45   1.277       .  A
O39         Cu42   2.000   1_545  S
O39          C44   1.276       .  A
O40         Cu42   2.006       .  S
O40          C43   1.278       .  A
Cu41        O281   2.012   1_545  S
Cu41        O284   2.015       .  S
Cu41       Cu290   2.374   1_545  S
Cu42        O286   2.003       .  S
Cu42       Cu289   2.374   1_565  S
C43         C153   1.479       .  S
C44         C240   1.477       .  S
C44         O282   1.279       .  A
C45         C144   1.480       .  S
C46         C132   1.472       .  S
C47          N48   1.360       .  A
C47          N52   1.358       .  A
C47         C105   1.477       .  S
N48          C49   1.359       .  A
C49          N50   1.356       .  A
C49         C117   1.480       .  S
N50          C51   1.354       .  A
C51          N52   1.356       .  A
C51         C180   1.474       .  S
O53         Cu61   2.015       .  S
O53          C63   1.279       .  A
O54         Cu61   2.011       .  S
O54          C64   1.278       .  A
O55         Cu61   2.003       .  S
O55          C65   1.277       .  A
O56         Cu61   2.008       .  S
O56          C66   1.278   1_455  A
O57         Cu62   2.006       .  S
O57          C66   1.277       .  A
O58         Cu62   2.008   1_455  S
O58          C65   1.278       .  A
O59         Cu62   2.007       .  S
O59          C64   1.278   1_655  A
O60         Cu62   1.999       .  S
O60          C63   1.277   1_655  A
Cu61        Cu62   2.374   1_455  S
C63          C81   1.477       .  S
C64          C93   1.478       .  S
C65         C108   1.476       .  S
C66         C201   1.476       .  S
O67        Cu323   2.006       .  S
O67          C77   1.277       .  A
O68         Cu75   2.013       .  S
O68          C78   1.278       .  A
O69         Cu75   2.017   1_655  S
O69         C327   1.279       .  A
O70        Cu323   2.006       .  S
O70          C80   1.278       .  A
O71         Cu76   2.007   1_455  S
O71          C80   1.277       .  A
O72        Cu324   2.001       .  S
O72         C327   1.277       .  A
O73        Cu324   2.004       .  S
O73          C78   1.277   1_655  A
O74         Cu76   2.011       .  S
O74          C77   1.278   1_655  A
Cu75        O315   2.006   1_554  S
Cu75        O318   2.006   1_554  S
Cu75       Cu324   2.375   1_455  S
Cu76        O320   2.001       .  S
Cu76        O321   2.004       .  S
Cu76       Cu323   2.375   1_655  S
C77          C96   1.475       .  S
C78          C84   1.475       .  S
C79         C225   1.479       .  S
C79         O317   1.279       .  A
C79         O320   1.277       .  A
C80         C168   1.473       .  S
C81          C82   1.403   1_455  A
C81          C86   1.415       .  A
C82          C83   1.397       .  A
C82          H91   1.084       .  S
C83          C84   1.412   1_655  A
C83          S87   1.802       .  S
C84          C85   1.403       .  A
C85          C86   1.401       .  A
C85          H92   1.084       .  S
C86          S88   1.803       .  S
S87          H90   1.406       .  S
S88          H89   1.406       .  S
C93          C94   1.404   1_455  A
C93          C98   1.414       .  A
C94          C95   1.400       .  A
C94         H103   1.085       .  S
C95          C96   1.413   1_655  A
C95          S99   1.804       .  S
C96          C97   1.403       .  A
C97          C98   1.399       .  A
C97         H104   1.085       .  S
C98         S100   1.803       .  S
S99         H102   1.406       .  S
S100        H101   1.406       .  S
C105        C106   1.404       .  A
C105        C110   1.414       .  A
C106        C107   1.397       .  A
C106        H115   1.084       .  S
C107        C108   1.413       .  A
C107        S111   1.804   1_455  S
C108        C109   1.404       .  A
C109        C110   1.400       .  A
C109        H116   1.084       .  S
C110        S112   1.803       .  S
S111        H114   1.406   1_655  S
S112        H113   1.407       .  S
C117        C118   1.405       .  A
C117        C122   1.415       .  A
C118        C119   1.395       .  A
C118        H127   1.083       .  S
C119        C120   1.412       .  A
C119        S123   1.803   1_545  S
C120        C121   1.404       .  A
C121        C122   1.400       .  A
C121        H128   1.084       .  S
C122        S124   1.802       .  S
S123        H126   1.405       .  S
S124        H125   1.407       .  S
C129        C130   1.405   1_565  A
C129        C134   1.419       .  A
C130        C131   1.399       .  A
C130        H139   1.084       .  S
C131        C132   1.411   1_545  A
C131        S135   1.804       .  S
C132        C133   1.401       .  A
C133        C134   1.401       .  A
C133        H140   1.084       .  S
C134        S136   1.803       .  S
S135        H138   1.406       .  S
S136        H137   1.408       .  S
C141        C142   1.403       .  A
C141        C146   1.413   1_565  A
C142        C143   1.400       .  A
C142        H151   1.083       .  S
C143        C144   1.414       .  A
C143        S147   1.803       .  S
C144        C145   1.406   1_565  A
C145        C146   1.401       .  A
C145        H152   1.084       .  S
C146        S148   1.803       .  S
S147        H150   1.407       .  S
S148        H149   1.407   1_545  S
C153        C154   1.406   1_556  A
C153        C406   1.413       .  A
C154        C155   1.403       .  A
C154        H163   1.084       .  S
C155        C156   1.415       .  A
C155        S159   1.803       .  S
C156        C405   1.404   1_554  A
C157        C158   1.396       .  A
C157        C404   1.404       .  A
C157        H164   1.084       .  S
C158        C401   1.413       .  A
C158        S160   1.804       .  S
S159        H162   1.407       .  S
S160        H161   1.407       .  S
C165        C170   1.414       .  A
C165        C414   1.404       .  A
C166        C167   1.401       .  A
C166        C413   1.404   1_554  A
C166        H175   1.084       .  S
C167        C416   1.413   1_554  A
C167        S171   1.803       .  S
C168        C169   1.401       .  A
C168        C415   1.413       .  A
C169        C170   1.398       .  A
C169        H176   1.084       .  S
C170        S172   1.800       .  S
S171        H174   1.407       .  S
S172        H173   1.407       .  S
C177        C178   1.402   1_655  A
C177        C182   1.415       .  A
C178        C179   1.397       .  A
C178        H187   1.084       .  S
C179        C180   1.414   1_565  A
C179        S183   1.804       .  S
C180        C181   1.402       .  A
C181        C182   1.398   1_445  A
C181        H188   1.084       .  S
C182        S184   1.804   1_565  S
S183        H186   1.407   1_565  S
S184        H185   1.407   1_545  S
C189        C190   1.404       .  A
C189        C194   1.415       .  A
C190        C191   1.401       .  A
C190        H199   1.083       .  S
C191        C192   1.415       .  A
C191        S195   1.802       .  S
C192        C193   1.402       .  A
C193        C194   1.395       .  A
C193        H200   1.083       .  S
C194        S196   1.805       .  S
S195        H198   1.407       .  S
S196        H197   1.407       .  S
C201        C202   1.404       .  A
C201        C206   1.413       .  A
C202        C203   1.400       .  A
C202        H211   1.084       .  S
C203        C204   1.413       .  A
C203        S207   1.804       .  S
C204        C205   1.404       .  A
C205        C206   1.398       .  A
C205        H212   1.084       .  S
C206        S208   1.804   1_655  S
S207        H210   1.407       .  S
S208        H209   1.407       .  S
C213        C218   1.412       .  A
C213        C462   1.401   1_554  A
C214        C215   1.398       .  A
C214        C461   1.401       .  A
C214        H223   1.084       .  S
C215        C464   1.412       .  A
C215        S219   1.800       .  S
C216        C217   1.402       .  A
C216        C463   1.412   1_554  A
C217        C218   1.400       .  A
C217        H224   1.084       .  S
C218        S220   1.801       .  S
S219        H222   1.406       .  S
S220        H221   1.406       .  S
C225        C230   1.414       .  A
C225        C474   1.401       .  A
C226        C227   1.395       .  A
C226        C473   1.401       .  A
C226        H235   1.083       .  S
C227        C476   1.414       .  A
C227        S231   1.800       .  S
C228        C229   1.406       .  A
C228        C475   1.414       .  A
C229        C230   1.404       .  A
C229        H236   1.084       .  S
C230        S232   1.803       .  S
S231        H234   1.407       .  S
S232        H233   1.406       .  S
C237        C242   1.415       .  A
C237        C486   1.403   1_554  A
C238        C239   1.401       .  A
C238        C485   1.403       .  A
C238        H247   1.083       .  S
C239        C488   1.414       .  A
C239        S243   1.804       .  S
C240        C241   1.402   1_556  A
C240        C487   1.414       .  A
C241        C242   1.398       .  A
C241        H248   1.083       .  S
C242        S244   1.804       .  S
S243        H246   1.407       .  S
S244        H245   1.407       .  S
C249        N250   1.361       .  A
C249        N254   1.357       .  A
C249        C485   1.478       .  S
C251        N252   1.361       .  A
C251        C476   1.483       .  S
C253        N254   1.354       .  A
C253        C461   1.472       .  S
C255        N256   1.359       .  A
C255        N260   1.361       .  A
C255        C452   1.476       .  S
N256        C257   1.357       .  A
C257        N258   1.353       .  A
C257        C425   1.474       .  S
N258        C259   1.355       .  A
C259        N260   1.359       .  A
C259        C437   1.476       .  S
C261        N262   1.359       .  A
C261        C413   1.477       .  S
C263        N264   1.356       .  A
C263        C464   1.473       .  S
N264        C265   1.359       .  A
C265        N266   1.360       .  A
C265        C404   1.481       .  S
O267       Cu275   2.013       .  S
O267        C277   1.278   1_545  A
O268       Cu275   2.012       .  S
O268        C278   1.279   1_545  A
O269       Cu275   2.002       .  S
O269        C279   1.277       .  A
O270       Cu275   2.001       .  S
O270        C280   1.277   1_545  A
O271       Cu276   2.009       .  S
O271        C280   1.277       .  A
O272       Cu276   2.001       .  S
O272        C279   1.277   1_565  A
O273       Cu276   2.008       .  S
O273        C278   1.277       .  A
O274       Cu276   2.011       .  S
O274        C277   1.278       .  A
Cu275      Cu276   2.372   1_545  S
C277        C389   1.478       .  S
C278        C377   1.484       .  S
C279        C368   1.476       .  S
C280        C440   1.477       .  S
O281        C291   1.278       .  A
O282       Cu289   2.018       .  S
O283       Cu289   2.021       .  S
O283        C293   1.280   1_545  A
O284        C294   1.278   1_545  A
O285       Cu290   2.004       .  S
O285        C294   1.277       .  A
O286        C293   1.277       .  A
O287       Cu290   2.000   1_545  S
O287        C292   1.276       .  A
O288       Cu290   2.006       .  S
O288        C291   1.278       .  A
C291        C401   1.479       .  S
C292        C488   1.477       .  S
C293        C392   1.480       .  S
C294        C380   1.472       .  S
C295        N296   1.360       .  A
C295        N300   1.358       .  A
C295        C353   1.477       .  S
N296        C297   1.359       .  A
C297        N298   1.356       .  A
C297        C365   1.480       .  S
N298        C299   1.354       .  A
C299        N300   1.356       .  A
C299        C428   1.474       .  S
O301       Cu309   2.015       .  S
O301        C311   1.279       .  A
O302       Cu309   2.011       .  S
O302        C312   1.278       .  A
O303       Cu309   2.003       .  S
O303        C313   1.277       .  A
O304       Cu309   2.008       .  S
O304        C314   1.278   1_455  A
O305       Cu310   2.006       .  S
O305        C314   1.277       .  A
O306       Cu310   2.008   1_455  S
O306        C313   1.278       .  A
O307       Cu310   2.007       .  S
O307        C312   1.278   1_655  A
O308       Cu310   1.999       .  S
O308        C311   1.277   1_655  A
Cu309      Cu310   2.374   1_455  S
C311        C329   1.477       .  S
C312        C341   1.478       .  S
C313        C356   1.476       .  S
C314        C449   1.476       .  S
O315        C325   1.277       .  A
O316       Cu323   2.013       .  S
O316        C326   1.278       .  A
O317       Cu323   2.017   1_655  S
O318        C328   1.278       .  A
O319       Cu324   2.007   1_456  S
O319        C328   1.277       .  A
O321        C326   1.277   1_655  A
O322       Cu324   2.011   1_556  S
O322        C325   1.278   1_655  A
C325        C344   1.475       .  S
C326        C332   1.475       .  S
C327        C473   1.479       .  S
C328        C416   1.473       .  S
C329        C330   1.403   1_455  A
C329        C334   1.415       .  A
C330        C331   1.397       .  A
C330        H339   1.084       .  S
C331        C332   1.412   1_655  A
C331        S335   1.802       .  S
C332        C333   1.403       .  A
C333        C334   1.401       .  A
C333        H340   1.084       .  S
C334        S336   1.803       .  S
S335        H338   1.406       .  S
S336        H337   1.406       .  S
C341        C342   1.404   1_455  A
C341        C346   1.414       .  A
C342        C343   1.400       .  A
C342        H351   1.085       .  S
C343        C344   1.413   1_655  A
C343        S347   1.804       .  S
C344        C345   1.403       .  A
C345        C346   1.399       .  A
C345        H352   1.085       .  S
C346        S348   1.803       .  S
S347        H350   1.406       .  S
S348        H349   1.406       .  S
C353        C354   1.404       .  A
C353        C358   1.414       .  A
C354        C355   1.397       .  A
C354        H363   1.084       .  S
C355        C356   1.413       .  A
C355        S359   1.804   1_455  S
C356        C357   1.404       .  A
C357        C358   1.400       .  A
C357        H364   1.084       .  S
C358        S360   1.803       .  S
S359        H362   1.406   1_655  S
S360        H361   1.407       .  S
C365        C366   1.405       .  A
C365        C370   1.415       .  A
C366        C367   1.395       .  A
C366        H375   1.083       .  S
C367        C368   1.412       .  A
C367        S371   1.803   1_545  S
C368        C369   1.404       .  A
C369        C370   1.400       .  A
C369        H376   1.084       .  S
C370        S372   1.802       .  S
S371        H374   1.405       .  S
S372        H373   1.407       .  S
C377        C378   1.406   1_565  A
C377        C382   1.419       .  A
C378        C379   1.399       .  A
C378        H387   1.084       .  S
C379        C380   1.411   1_545  A
C379        S383   1.804       .  S
C380        C381   1.401       .  A
C381        C382   1.401       .  A
C381        H388   1.084       .  S
C382        S384   1.803       .  S
S383        H386   1.406       .  S
S384        H385   1.408       .  S
C389        C390   1.403       .  A
C389        C394   1.413   1_565  A
C390        C391   1.400       .  A
C390        H399   1.083       .  S
C391        C392   1.414       .  A
C391        S395   1.803       .  S
C392        C393   1.406   1_565  A
C393        C394   1.401       .  A
C393        H400   1.084       .  S
C394        S396   1.803       .  S
S395        H398   1.407       .  S
S396        H397   1.407   1_545  S
C401        C402   1.406       .  A
C402        C403   1.403       .  A
C402        H411   1.084       .  S
C403        C404   1.415       .  A
C403        S407   1.803       .  S
C405        C406   1.396       .  A
C405        H412   1.084       .  S
C406        S408   1.804       .  S
S407        H410   1.407       .  S
S408        H409   1.407       .  S
C413        C418   1.414       .  A
C414        C415   1.400       .  A
C414        H423   1.084       .  S
C415        S419   1.803       .  S
C416        C417   1.401       .  A
C417        C418   1.398       .  A
C417        H424   1.084       .  S
C418        S420   1.800       .  S
S419        H422   1.407       .  S
S420        H421   1.407       .  S
C425        C426   1.402   1_655  A
C425        C430   1.415       .  A
C426        C427   1.397       .  A
C426        H435   1.084       .  S
C427        C428   1.414   1_565  A
C427        S431   1.804       .  S
C428        C429   1.402       .  A
C429        C430   1.398   1_445  A
C429        H436   1.084       .  S
C430        S432   1.804   1_565  S
S431        H434   1.407   1_565  S
S432        H433   1.407   1_545  S
C437        C438   1.404       .  A
C437        C442   1.415       .  A
C438        C439   1.401       .  A
C438        H447   1.083       .  S
C439        C440   1.415       .  A
C439        S443   1.802       .  S
C440        C441   1.402       .  A
C441        C442   1.395       .  A
C441        H448   1.083       .  S
C442        S444   1.805       .  S
S443        H446   1.407       .  S
S444        H445   1.407       .  S
C449        C450   1.404       .  A
C449        C454   1.413       .  A
C450        C451   1.400       .  A
C450        H459   1.084       .  S
C451        C452   1.413       .  A
C451        S455   1.804       .  S
C452        C453   1.404       .  A
C453        C454   1.398       .  A
C453        H460   1.084       .  S
C454        S456   1.804   1_655  S
S455        H458   1.407       .  S
S456        H457   1.407       .  S
C461        C466   1.412       .  A
C462        C463   1.398       .  A
C462        H471   1.084       .  S
C463        S467   1.800       .  S
C464        C465   1.402       .  A
C465        C466   1.400       .  A
C465        H472   1.084       .  S
C466        S468   1.801       .  S
S467        H470   1.406       .  S
S468        H469   1.406       .  S
C473        C478   1.414   1_554  A
C474        C475   1.395       .  A
C474        H483   1.083       .  S
C475        S479   1.800       .  S
C476        C477   1.406   1_554  A
C477        C478   1.404       .  A
C477        H484   1.084       .  S
C478        S480   1.803       .  S
S479        H482   1.407       .  S
S480        H481   1.406       .  S
C485        C490   1.415       .  A
C486        C487   1.401       .  A
C486        H495   1.083       .  S
C487        S491   1.804       .  S
C488        C489   1.402       .  A
C489        C490   1.398       .  A
C489        H496   1.083       .  S
C490        S492   1.804       .  S
S491        H494   1.407       .  S
S492        H493   1.407       .  S
