geometry optimzed in LAMMPS
_audit_creation_date              2020-12-01 
_audit_creation_method            'lammps2cif' 
_symmetry_space_group_name_H-M    'P1' 
_symmetry_Int_Tables_number       1 
_symmetry_cell_setting            triclinic 
loop_ 
_symmetry_equiv_pos_as_xyz 
  x,y,z 
_cell_length_a                    27.81193262 
_cell_length_b                    28.242285579053217 
_cell_length_c                    29.095803834613626 
_cell_angle_alpha                 90.01182216149584 
_cell_angle_beta                  89.00344440545224 
_cell_angle_gamma                 89.85284431250652 
loop_ 
_atom_site_label 
_atom_site_type_symbol 
_atom_site_fract_x 
_atom_site_fract_y 
_atom_site_fract_z 
_atom_site_charge 
C1          C  0.21934494  0.28077678  0.84296338     0.79900
N2          N  0.24925901  0.25149870  0.86587989    -0.78400
C3          C  0.27946692  0.22224673  0.84228562     0.82300
N4          N  0.28002022  0.22239731  0.79558650    -0.78400
C5          C  0.25031414  0.25187295  0.77255861     0.82400
N6          N  0.21983963  0.28083286  0.79626207    -0.80100
Zn7        Zn  0.48149152  0.44338024  0.90783955     1.49700
Zn8        Zn  0.04509335  0.48355814  0.98854829     1.49400
Zn9        Zn  0.50649008  0.05080344  0.91174629     1.49100
Zn10       Zn  0.43501115  0.00761839  0.98662449     1.49500
O11         O  0.49186479  0.49613736  0.94875242    -1.84500
O12         O  0.03958380  0.40161418  0.90790305    -0.75100
O13         O  0.08468370  0.04270311  0.99470557    -0.74900
O14         O  0.52221381  0.03177857  0.84620866    -0.74400
O15         O  0.08686456  0.43115400  0.96192740    -0.75100
O16         O  0.47879482  0.46561776  0.84165273    -0.74700
O17         O  0.05724639  0.09143216  0.94104924    -0.75300
O18         O  0.39752392  0.06394562  0.96196756    -0.74700
O19         O  0.02162143  0.97099873  0.05327127    -0.75400
O20         O  0.44785027  0.09046199  0.90745505    -0.74800
O21         O  0.45362650  0.01331652  0.05377787    -0.75300
O22         O  0.39281431  0.45069460  0.98467696    -0.75200
O23         O  0.42402951  0.40466691  0.92941622    -0.75000
C24         C  0.07901308  0.40213026  0.92933997     0.76800
C25         C  0.08457908  0.08275236  0.97470128     0.77300
C26         C  0.50264586  0.49906923  0.82253915     0.76300
C27         C  0.40774875  0.09214845  0.92893461     0.76600
C28         C  0.48719365  0.99173343  0.07479257     0.77800
C29         C  0.39330238  0.41238633  0.96164837     0.76800
C30         C  0.26816738  0.27956871  0.05111675     0.79900
N31         N  0.27081280  0.28080106  0.09762522    -0.78400
C32         C  0.24247918  0.25210550  0.12385986     0.82300
N33         N  0.21157006  0.22187795  0.10322658    -0.78400
C34         C  0.20878096  0.22071509  0.05658370     0.82400
N35         N  0.23717452  0.24962512  0.03067239    -0.80100
C36         C  0.02863218  0.46718845  0.34170468     0.79900
N37         N  0.02529188  0.46461722  0.29516186    -0.78400
C38         C  0.49484888  0.99379988  0.27272971     0.82300
N39         N  0.46814236  0.02589453  0.29678443    -0.78400
C40         C  0.47146284  0.02843888  0.34322175     0.82400
N41         N  0.00159458  0.49906210  0.36551854    -0.80100
Zn42       Zn  0.30923840  0.24149407  0.48814982     1.49700
Zn43       Zn  0.24550722  0.20023479  0.40883707     1.49400
Zn44       Zn  0.19883686  0.26414389  0.48621213     1.49100
Zn45       Zn  0.26905860  0.30859219  0.41008757     1.49500
O46         O  0.25573184  0.25388852  0.44836979    -1.84500
O47         O  0.34999556  0.18713582  0.46439429    -0.75100
O48         O  0.19107874  0.15930845  0.43251665    -0.74900
O49         O  0.21706587  0.27288374  0.55301328    -0.74400
O50         O  0.30446584  0.16036781  0.40779284    -0.75100
O51         O  0.28632603  0.23268889  0.55354600    -0.74700
O52         O  0.15903189  0.20531674  0.48716658    -0.75300
O53         O  0.20903651  0.34820289  0.40757777    -0.74700
O54         O  0.23762706  0.22118835  0.34326625    -0.75400
O55         O  0.15836842  0.31685026  0.45933998    -0.74800
O56         O  0.27950613  0.28845770  0.34318782    -0.75300
O57         O  0.32384714  0.34780886  0.43712654    -0.75200
O58         O  0.35096603  0.29865651  0.49072566    -0.75000
C59         C  0.34278118  0.15918364  0.43087281     0.76800
C60         C  0.16075192  0.16651741  0.46508007     0.77300
C61         C  0.25117526  0.25274490  0.57454572     0.76300
C62         C  0.16784620  0.34638492  0.42727742     0.76600
C63         C  0.25840878  0.25503275  0.32181766     0.77800
C64         C  0.35234764  0.33816000  0.46987147     0.76800
C65         C  0.48369300  0.46679656  0.55556451     0.79900
N66         N  0.51195785  0.49688827  0.53091491    -0.78400
C67         C  0.04028112  0.02824874  0.55281225     0.82300
N68         N  0.04050272  0.02964902  0.59947780    -0.78400
C69         C  0.51228422  0.49975225  0.62428944     0.82400
N70         N  0.48390935  0.46824861  0.60227782    -0.80100
C71         C  0.15062234  0.09171054  0.50826503    -0.02200
C72         C  0.12997690  0.12761125  0.48135692     0.07500
C73         C  0.07982347  0.12946754  0.47602144    -0.02300
C74         C  0.05026911  0.09601569  0.49843132    -0.02300
C75         C  0.07100723  0.06076725  0.52615931     0.07600
C76         C  0.12125049  0.05810997  0.53035753    -0.02500
Br77       Br  0.14987593  0.00878456  0.56694938    -0.01000
Br78       Br  0.21887783  0.09118678  0.51844544    -0.01100
Br79       Br  0.48132235  0.10091626  0.49423881    -0.01100
Br80       Br  0.05168298  0.17863224  0.43928183    -0.01100
C81         C  0.46851750  0.39619099  0.50603331    -0.02200
C82         C  0.45060387  0.43493000  0.53163704     0.07500
C83         C  0.40076336  0.44352169  0.53433838    -0.02300
C84         C  0.36877467  0.41350841  0.51138909    -0.02300
C85         C  0.38643967  0.37392492  0.48672414     0.07600
C86         C  0.43639760  0.36504825  0.48457853    -0.02500
Br87       Br  0.46068868  0.30930901  0.45362625    -0.01000
Br88       Br  0.53688298  0.38449082  0.50247743    -0.01100
Br89       Br  0.30052167  0.42520173  0.51604004    -0.01100
Br90       Br  0.37649452  0.49645151  0.56989418    -0.01100
C91         C  0.05591825  0.38709458  0.36631226    -0.02200
C92         C  0.06236124  0.43648706  0.36638321     0.07500
C93         C  0.10127658  0.45656510  0.38989578    -0.02300
C94         C  0.13481615  0.42709665  0.41162985    -0.02300
C95         C  0.12957467  0.37754054  0.40993432     0.07600
C96         C  0.08997252  0.35759580  0.38724461    -0.02500
Br97       Br  0.08427333  0.28985320  0.38138210    -0.01000
Br98       Br  0.49954580  0.36008951  0.33877125    -0.01100
Br99       Br  0.18817803  0.45456050  0.44349838    -0.01100
Br100      Br  0.11038416  0.02445105  0.39007902    -0.01100
C101        C  0.41632969  0.14342457  0.38456482    -0.02200
C102        C  0.38068895  0.12662532  0.41529137     0.07500
C103        C  0.37689456  0.07793382  0.42455783    -0.02300
C104        C  0.40712408  0.04565681  0.40133656    -0.02300
C105        C  0.44179771  0.06233565  0.36943316     0.07600
C106        C  0.44729589  0.11132479  0.36204085    -0.02500
Br107      Br  0.49722552  0.13461736  0.32131104    -0.01000
Br108      Br  0.42055485  0.21026141  0.37118665    -0.01100
Br109      Br  0.39837344  0.97853120  0.41052545    -0.01100
Br110      Br  0.32979840  0.05559750  0.46842623    -0.01100
C111        C  0.23120897  0.29299941  0.19964688    -0.02200
C112        C  0.24674886  0.25300241  0.17441852     0.07500
C113        C  0.26817754  0.21464255  0.19737529    -0.02300
C114        C  0.27375940  0.21611496  0.24541790    -0.02300
C115        C  0.25689957  0.25554512  0.27093094     0.07600
C116        C  0.23576206  0.29409176  0.24782174    -0.02500
Br117      Br  0.21037984  0.34727170  0.28231932    -0.01000
Br118      Br  0.20201298  0.34564098  0.16823161    -0.01100
Br119      Br  0.30675829  0.16508103  0.27595573    -0.01100
Br120      Br  0.29119937  0.16066543  0.16262864    -0.01100
C121        C  0.31050100  0.37952816  0.97432408    -0.02200
C122        C  0.36077297  0.37424721  0.97689198     0.07500
C123        C  0.38031254  0.33565847  0.00105334    -0.02300
C124        C  0.34981313  0.30353069  0.02395123    -0.02300
C125        C  0.29968018  0.31007438  0.02299660     0.07600
C126        C  0.27993501  0.34723735  0.99712560    -0.02500
Br127      Br  0.21116266  0.35600634  0.99598516    -0.01000
Br128      Br  0.28346271  0.43171349  0.94101320    -0.01100
Br129      Br  0.37674733  0.25090413  0.05726390    -0.01100
Br130      Br  0.44903445  0.32926177  0.00655356    -0.01100
C131        C  0.16618179  0.11644205  0.98650353    -0.02200
C132        C  0.11601651  0.12022999  0.99235759     0.07500
C133        C  0.09610886  0.15801857  0.01815120    -0.02300
C134        C  0.12647580  0.19095589  0.03937938    -0.02300
C135        C  0.17674076  0.18688647  0.03380030     0.07600
C136        C  0.19647041  0.15041008  0.00615634    -0.02500
Br137      Br  0.26509360  0.14621734  0.99596981    -0.01000
Br138      Br  0.19319762  0.06423048  0.95196105    -0.01100
Br139      Br  0.09929477  0.24235526  0.07516315    -0.01100
Br140      Br  0.02731867  0.16351284  0.02614991    -0.01100
C141        C  0.99151498  0.03956048  0.69887932    -0.02200
C142        C  0.51240713  0.50128526  0.67497211     0.07500
C143        C  0.53466966  0.46464324  0.69963794    -0.02300
C144        C  0.53161193  0.46387667  0.74799955    -0.02300
C145        C  0.50711285  0.50040640  0.77188022     0.07600
C146        C  0.98868532  0.03917756  0.74728037    -0.02500
Br147      Br  0.95700991  0.09058250  0.77961245    -0.01000
Br148      Br  0.96555488  0.09232313  0.66514233    -0.01100
Br149      Br  0.56228745  0.41353073  0.78151073    -0.01100
Br150      Br  0.57148827  0.41696228  0.66694261    -0.01100
C151        C  0.46081072  0.95949098  0.15140163    -0.02200
C152        C  0.48780580  0.99246048  0.12543793     0.07500
C153        C  0.01727409  0.52575919  0.14779148    -0.02300
C154        C  0.01967154  0.52590332  0.19601897    -0.02300
C155        C  0.49261203  0.99276904  0.22214312     0.07600
C156        C  0.46311339  0.95974344  0.19980045    -0.02500
Br157      Br  0.42555965  0.91538835  0.23564816    -0.01000
Br158      Br  0.42153665  0.91362356  0.12047472    -0.01100
Br159      Br  0.06050117  0.57076478  0.22644258    -0.01100
Br160      Br  0.05436070  0.57079778  0.11228867    -0.01100
C161        C  0.21660701  0.22500868  0.69818674    -0.02200
C162        C  0.25058536  0.25204569  0.72198809     0.07500
C163        C  0.28468654  0.27933060  0.69749180    -0.02300
C164        C  0.28456811  0.27989316  0.64911435    -0.02300
C165        C  0.25051075  0.25287681  0.62521135     0.07600
C166        C  0.21691863  0.22495318  0.64979246    -0.02500
Br167      Br  0.17324128  0.18460216  0.61714185    -0.01000
Br168      Br  0.17009730  0.18768673  0.73215079    -0.01100
Br169      Br  0.33051378  0.31830076  0.61551696    -0.01100
Br170      Br  0.33115051  0.31624754  0.73042015    -0.01100
C171        C  0.38285026  0.17498743  0.91107938    -0.02200
C172        C  0.37185804  0.12626742  0.91255134     0.07500
C173        C  0.32985183  0.10946115  0.89163940    -0.00900
C174        C  0.29918104  0.14114164  0.86911745    -0.02300
C175        C  0.31056626  0.18959871  0.86731251     0.07600
C176        C  0.35199565  0.20668145  0.88877058    -0.02500
Br177      Br  0.36777996  0.27311455  0.88517336    -0.01000
Br178      Br  0.44087712  0.19823104  0.93836264    -0.01100
Br179      Br  0.24192074  0.11823686  0.83991959    -0.01100
Br180      Br  0.31647612  0.04259836  0.89011606    -0.01100
C181        C  0.11645317  0.32207935  0.91989719    -0.02200
C182        C  0.11792777  0.37126149  0.91229068     0.07500
C183        C  0.15381361  0.39085809  0.88337210    -0.02300
C184        C  0.18780590  0.36126542  0.86153405    -0.02300
C185        C  0.18590685  0.31193170  0.86849146     0.07600
C186        C  0.15074481  0.29238519  0.89841726    -0.02500
Br187      Br  0.14749344  0.22475967  0.90787600    -0.01000
Br188      Br  0.06696504  0.29541401  0.95896682    -0.01100
Br189      Br  0.23719076  0.38851446  0.82233065    -0.01100
Br190      Br  0.15438203  0.45811523  0.87126140    -0.01100
C191        C  0.21982959  0.78119075  0.84297931     0.79900
N192        N  0.24979296  0.75194188  0.86587828    -0.78400
C193        C  0.28008009  0.72279334  0.84224977     0.82300
N194        N  0.28064092  0.72299235  0.79555214    -0.78400
C195        C  0.25088891  0.75244448  0.77254736     0.82400
N196        N  0.22034638  0.78130860  0.79627967    -0.80100
Zn197      Zn  0.48143083  0.94339196  0.90784467     1.49700
Zn198      Zn  0.04509387  0.98366665  0.98851681     1.49400
Zn199      Zn  0.50690906  0.55071590  0.91156646     1.49100
Zn200      Zn  0.43522874  0.50793327  0.98648946     1.49500
O201        O  0.49170040  0.99610961  0.94886028    -1.84500
O202        O  0.03955569  0.90165124  0.90781658    -0.75100
O203        O  0.08480583  0.54242836  0.99474649    -0.74900
O204        O  0.52237616  0.53165681  0.84600108    -0.74400
O205        O  0.08690339  0.93130700  0.96172650    -0.75100
O206        O  0.47869641  0.96572906  0.84172160    -0.74700
O207        O  0.05784499  0.59112409  0.94083210    -0.75300
O208        O  0.39800248  0.56436421  0.96172479    -0.74700
O209        O  0.02152457  0.47102248  0.05326529    -0.75400
O210        O  0.44848789  0.59064014  0.90724781    -0.74800
O211        O  0.45384353  0.51378837  0.05363515    -0.75300
O212        O  0.39277477  0.95028091  0.98468011    -0.75200
O213        O  0.42404659  0.90452218  0.92924758    -0.75000
C214        C  0.07903033  0.90223500  0.92917339     0.76800
C215        C  0.08498428  0.58240454  0.97461831     0.77300
C216        C  0.50259384  0.99918204  0.82266813     0.76300
C217        C  0.40837590  0.59251145  0.92868677     0.76600
C218        C  0.48724977  0.49204119  0.07472242     0.77800
C219        C  0.39332190  0.91206455  0.96151448     0.76800
C220        C  0.26858592  0.77899439  0.05087288     0.79900
N221        N  0.27124345  0.78039888  0.09740449    -0.78400
C222        C  0.24296447  0.75176818  0.12371957     0.82300
N223        N  0.21208355  0.72141485  0.10321884    -0.78400
C224        C  0.20931610  0.72008764  0.05655882     0.82400
N225        N  0.23764026  0.74891752  0.03056397    -0.80100
C226        C  0.02870874  0.96716772  0.34179080     0.79900
N227        N  0.02526715  0.96445958  0.29526945    -0.78400
C228        C  0.49491548  0.49401482  0.27264545     0.82300
N229        N  0.46813745  0.52601441  0.29673268    -0.78400
C230        C  0.47135911  0.52843828  0.34317777     0.82400
N231        N  0.00174146  0.99911147  0.36557641    -0.80100
Zn232      Zn  0.30920547  0.74146180  0.48807306     1.49700
Zn233      Zn  0.24537554  0.70036755  0.40871463     1.49400
Zn234      Zn  0.19893471  0.76428158  0.48622842     1.49100
Zn235      Zn  0.26914862  0.80859644  0.40999112     1.49500
O236        O  0.25573210  0.75394323  0.44829812    -1.84500
O237        O  0.34987258  0.68711063  0.46422813    -0.75100
O238        O  0.19088650  0.65954392  0.43238309    -0.74900
O239        O  0.21725649  0.77305709  0.55301534    -0.74400
O240        O  0.30424557  0.66040232  0.40766628    -0.75100
O241        O  0.28637495  0.73263619  0.55350384    -0.74700
O242        O  0.15907143  0.70548950  0.48721376    -0.75300
O243        O  0.20918827  0.84821171  0.40747016    -0.74700
O244        O  0.23759365  0.72131672  0.34312995    -0.75400
O245        O  0.15855685  0.81703372  0.45937108    -0.74800
O246        O  0.27961145  0.78850231  0.34307995    -0.75300
O247        O  0.32388488  0.84778869  0.43709041    -0.75200
O248        O  0.35093623  0.79859845  0.49069177    -0.75000
C249        C  0.34258213  0.65917536  0.43071054     0.76800
C250        C  0.16067334  0.66673522  0.46504422     0.77300
C251        C  0.25133084  0.75284049  0.57452985     0.76300
C252        C  0.16803533  0.84649170  0.42724201     0.76600
C253        C  0.25848178  0.75510743  0.32169843     0.77800
C254        C  0.35233243  0.83811665  0.46986773     0.76800
C255        C  0.48350696  0.96681863  0.55567136     0.79900
N256        N  0.51172149  0.99692219  0.53098005    -0.78400
C257        C  0.04038743  0.52831079  0.55278813     0.82300
N258        N  0.04040404  0.52982227  0.59945734    -0.78400
C259        C  0.51242678  0.99957867  0.62436081     0.82400
N260        N  0.48391048  0.96817100  0.60238396    -0.80100
C261        C  0.15065812  0.59220249  0.50863317    -0.02200
C262        C  0.12998563  0.62780662  0.48138766     0.07500
C263        C  0.07987615  0.62932467  0.47569780    -0.02300
C264        C  0.05037105  0.59581482  0.49808415    -0.02300
C265        C  0.07111481  0.56087027  0.52617208     0.07600
C266        C  0.12133996  0.55856332  0.53073247    -0.02500
Br267      Br  0.15002846  0.50964014  0.56776897    -0.01000
Br268      Br  0.21886746  0.59211301  0.51915065    -0.01100
Br269      Br  0.48143795  0.60023779  0.49333148    -0.01100
Br270      Br  0.05172131  0.67810893  0.43850670    -0.01100
C271        C  0.46840114  0.89628796  0.50605134    -0.02200
C272        C  0.45043025  0.93491213  0.53178617     0.07500
C273        C  0.40056443  0.94333044  0.53464617    -0.02300
C274        C  0.36862591  0.91335076  0.51159454    -0.02300
C275        C  0.38636069  0.87387964  0.48680479     0.07600
C276        C  0.43632632  0.86508066  0.48463333    -0.02500
Br277      Br  0.46067947  0.80930364  0.45378938    -0.01000
Br278      Br  0.53679753  0.88482575  0.50226376    -0.01100
Br279      Br  0.30034614  0.92490435  0.51628641    -0.01100
Br280      Br  0.37618155  0.99591969  0.57060684    -0.01100
C281        C  0.05589719  0.88716635  0.36665884    -0.02200
C282        C  0.06247487  0.93653498  0.36646252     0.07500
C283        C  0.10159844  0.95664574  0.38962647    -0.02300
C284        C  0.13522954  0.92720905  0.41126169    -0.02300
C285        C  0.12979332  0.87765992  0.40990259     0.07600
C286        C  0.08999948  0.85769395  0.38753660    -0.02500
Br287      Br  0.08413051  0.78994175  0.38195091    -0.01000
Br288      Br  0.49927915  0.86017940  0.33954658    -0.01100
Br289      Br  0.18903597  0.95470894  0.44243058    -0.01100
Br290      Br  0.10994911  0.52438033  0.39066525    -0.01100
C291        C  0.41615505  0.64339679  0.38446649    -0.02200
C292        C  0.38043312  0.62658470  0.41509835     0.07500
C293        C  0.37654374  0.57788355  0.42428020    -0.02300
C294        C  0.40689006  0.54561982  0.40117924    -0.02300
C295        C  0.44165906  0.56231189  0.36937642     0.07600
C296        C  0.44714275  0.61130173  0.36197007    -0.02500
Br297      Br  0.49705886  0.63460331  0.32122186    -0.01000
Br298      Br  0.42044713  0.71024705  0.37115189    -0.01100
Br299      Br  0.39820438  0.47849748  0.41040774    -0.01100
Br300      Br  0.32909097  0.55551975  0.46779836    -0.01100
C301        C  0.23117057  0.79268332  0.19944782    -0.02200
C302        C  0.24721176  0.75282606  0.17429171     0.07500
C303        C  0.26899362  0.71471704  0.19731855    -0.02300
C304        C  0.27444603  0.71629638  0.24537403    -0.02300
C305        C  0.25709342  0.75556705  0.27081386     0.07600
C306        C  0.23557579  0.79385602  0.24764046    -0.02500
Br307      Br  0.20945951  0.84673036  0.28208787    -0.01000
Br308      Br  0.20150997  0.84498877  0.16791962    -0.01100
Br309      Br  0.30785308  0.66562223  0.27605316    -0.01100
Br310      Br  0.29259088  0.66091016  0.16266989    -0.01100
C311        C  0.31056921  0.87915572  0.97426531    -0.02200
C312        C  0.36085400  0.87382759  0.97660757     0.07500
C313        C  0.38048024  0.83505257  0.00043040    -0.02300
C314        C  0.35006539  0.80281360  0.02326084    -0.02300
C315        C  0.29994596  0.80947033  0.02264097     0.07600
C316        C  0.28009192  0.84674512  0.99699520    -0.02500
Br317      Br  0.21129611  0.85539393  0.99598940    -0.01000
Br318      Br  0.28340150  0.93161249  0.94144611    -0.01100
Br319      Br  0.37706404  0.74983645  0.05600651    -0.01100
Br320      Br  0.44920845  0.82859898  0.00569564    -0.01100
C321        C  0.16668778  0.61557095  0.98693649    -0.02200
C322        C  0.11650531  0.61976067  0.99231663     0.07500
C323        C  0.09661868  0.65779404  0.01777839    -0.02300
C324        C  0.12701281  0.69067737  0.03902709    -0.02300
C325        C  0.17727459  0.68622321  0.03389397     0.07600
C326        C  0.19702340  0.64943440  0.00666902    -0.02500
Br327      Br  0.26571317  0.64470222  0.99718691    -0.01000
Br328      Br  0.19366108  0.56292584  0.95299574    -0.01100
Br329      Br  0.09989743  0.74253144  0.07422488    -0.01100
Br330      Br  0.02781613  0.66363787  0.02540017    -0.01100
C331        C  0.98955862  0.53877409  0.69880253    -0.02200
C332        C  0.51265046  0.00110789  0.67506104     0.07500
C333        C  0.53327217  0.96354843  0.69976677    -0.02300
C334        C  0.53026613  0.96296122  0.74813625    -0.02300
C335        C  0.50728880  0.00044760  0.77199869     0.07600
C336        C  0.98684066  0.53831865  0.74720672    -0.02500
Br337      Br  0.95323337  0.58845033  0.77966547    -0.01000
Br338      Br  0.96127028  0.59032013  0.66505659    -0.01100
Br339      Br  0.55917236  0.91158753  0.78167767    -0.01100
Br340      Br  0.56795175  0.91431543  0.66712887    -0.01100
C341        C  0.46059905  0.46004798  0.15132448    -0.02200
C342        C  0.48781818  0.49283819  0.12536331     0.07500
C343        C  0.01708676  0.02553281  0.14787010    -0.02300
C344        C  0.01947075  0.02571504  0.19609399    -0.02300
C345        C  0.49266297  0.49306475  0.22206093     0.07600
C346        C  0.46288600  0.46029012  0.19971883    -0.02500
Br347      Br  0.42486351  0.41632093  0.23557003    -0.01000
Br348      Br  0.42104336  0.41442270  0.12039564    -0.01100
Br349      Br  0.06017518  0.07070488  0.22649331    -0.01100
Br350      Br  0.05395519  0.07073580  0.11237292    -0.01100
C351        C  0.21731476  0.72508166  0.69830093    -0.02200
C352        C  0.25103895  0.75254619  0.72197696     0.07500
C353        C  0.28475978  0.78016314  0.69735237    -0.02300
C354        C  0.28455873  0.78056252  0.64897157    -0.02300
C355        C  0.25077235  0.75309459  0.62519685     0.07600
C356        C  0.21753960  0.72488507  0.64990850    -0.02500
Br357      Br  0.17421841  0.68401171  0.61744206    -0.01000
Br358      Br  0.17120491  0.68745294  0.73244247    -0.01100
Br359      Br  0.33005619  0.81929949  0.61518344    -0.01100
Br360      Br  0.33080133  0.81775728  0.73010699    -0.01100
C361        C  0.38404810  0.67537478  0.91012720    -0.02200
C362        C  0.37263009  0.62676365  0.91225255     0.07500
C363        C  0.33019528  0.61010073  0.89201212    -0.00900
C364        C  0.29944529  0.64182265  0.86964574    -0.02300
C365        C  0.31122465  0.69015674  0.86723121     0.07600
C366        C  0.35313535  0.70709880  0.88792892    -0.02500
Br367      Br  0.36939058  0.77337074  0.88351352    -0.01000
Br368      Br  0.44272527  0.69843080  0.93631529    -0.01100
Br369      Br  0.24155629  0.61912773  0.84142743    -0.01100
Br370      Br  0.31635745  0.54331702  0.89102766    -0.01100
C371        C  0.11647132  0.82216997  0.91949422    -0.02200
C372        C  0.11796709  0.87139211  0.91207352     0.07500
C373        C  0.15395155  0.89108027  0.88332415    -0.02300
C374        C  0.18814313  0.86158101  0.86165076    -0.02300
C375        C  0.18628495  0.81223487  0.86850555     0.07600
C376        C  0.15096053  0.79256983  0.89817278    -0.02500
Br377      Br  0.14783058  0.72491626  0.90754292    -0.01000
Br378      Br  0.06660682  0.79527656  0.95795352    -0.01100
Br379      Br  0.23777715  0.88896354  0.82282853    -0.01100
Br380      Br  0.15428195  0.95830121  0.87104314    -0.01100
C381        C  0.71934662  0.28077199  0.84296452     0.79900
N382        N  0.74926042  0.25149372  0.86588109    -0.78400
C383        C  0.77946844  0.22224184  0.84228688     0.82300
N384        N  0.78002195  0.22239252  0.79558775    -0.78400
C385        C  0.75031600  0.25186828  0.77255980     0.82400
N386        N  0.71984157  0.28082831  0.79626322    -0.80100
Zn387      Zn  0.98148870  0.44338304  0.90783945     1.49700
Zn388      Zn  0.54509636  0.48355460  0.98854911     1.49400
Zn389      Zn  0.00649200  0.05080046  0.91174753     1.49100
Zn390      Zn  0.93501420  0.00761491  0.98662644     1.49500
O391        O  0.99186207  0.49614067  0.94875145    -1.84500
O392        O  0.53958645  0.40161121  0.90790304    -0.75100
O393        O  0.58468043  0.04270654  0.99470555    -0.74900
O394        O  0.02221473  0.03177617  0.84620942    -0.74400
O395        O  0.58686704  0.43115002  0.96192806    -0.75100
O396        O  0.97879217  0.46562001  0.84165267    -0.74700
O397        O  0.55724422  0.09143523  0.94104840    -0.75300
O398        O  0.89752638  0.06394211  0.96197022    -0.74700
O399        O  0.52161729  0.97100130  0.05326989    -0.75400
O400        O  0.94785205  0.09045895  0.90745739    -0.74800
O401        O  0.95363042  0.01331356  0.05377958    -0.75300
O402        O  0.89281104  0.45069886  0.98467610    -0.75200
O403        O  0.92402645  0.40467010  0.92941639    -0.75000
C404        C  0.57901550  0.40212659  0.92934036     0.76800
C405        C  0.58457631  0.08275564  0.97470096     0.77300
C406        C  0.00264487  0.49907028  0.82253896     0.76300
C407        C  0.90775075  0.09214519  0.92893734     0.76600
C408        C  0.98719802  0.99173103  0.07479414     0.77800
C409        C  0.89329911  0.41239015  0.96164822     0.76800
C410        C  0.76816426  0.27957237  0.05111711     0.79900
N411        N  0.77081044  0.28080367  0.09762555    -0.78400
C412        C  0.74247744  0.25210731  0.12386001     0.82300
N413        N  0.71156820  0.22188000  0.10322650    -0.78400
C414        C  0.70877835  0.22071820  0.05658363     0.82400
N415        N  0.73717128  0.24962905  0.03067254    -0.80100
C416        C  0.52863336  0.46718554  0.34170743     0.79900
N417        N  0.52529419  0.46461448  0.29516448    -0.78400
C418        C  0.99485443  0.99380009  0.27273130     0.82300
N419        N  0.96814777  0.02589467  0.29678593    -0.78400
C420        C  0.97146744  0.02843840  0.34322335     0.82400
N421        N  0.50159525  0.49905922  0.36552075    -0.80100
Zn422      Zn  0.80924100  0.24149287  0.48815024     1.49700
Zn423      Zn  0.74551011  0.20023337  0.40883721     1.49400
Zn424      Zn  0.69883958  0.26414138  0.48621360     1.49100
Zn425      Zn  0.76905961  0.30859126  0.41008850     1.49500
O426        O  0.75573417  0.25388698  0.44837038    -1.84500
O427        O  0.84999880  0.18713538  0.46439402    -0.75100
O428        O  0.69108193  0.15930662  0.43251669    -0.74900
O429        O  0.71706869  0.27288065  0.55301474    -0.74400
O430        O  0.80446897  0.16036671  0.40779294    -0.75100
O431        O  0.78632937  0.23268674  0.55354673    -0.74700
O432        O  0.65903534  0.20531398  0.48716754    -0.75300
O433        O  0.70903708  0.34820133  0.40758038    -0.74700
O434        O  0.73762972  0.22118695  0.34326628    -0.75400
O435        O  0.65837008  0.31684745  0.45934283    -0.74800
O436        O  0.77950589  0.28845807  0.34318805    -0.75300
O437        O  0.82384805  0.34780821  0.43712725    -0.75200
O438        O  0.85096759  0.29865587  0.49072613    -0.75000
C439        C  0.84278447  0.15918297  0.43087271     0.76800
C440        C  0.66075536  0.16651504  0.46508044     0.77300
C441        C  0.75117839  0.25274198  0.57454684     0.76300
C442        C  0.66784709  0.34638263  0.42728057     0.76600
C443        C  0.75840968  0.25503246  0.32181779     0.77800
C444        C  0.85234872  0.33815943  0.46987207     0.76800
C445        C  0.98369527  0.46679479  0.55556463     0.79900
N446        N  0.01196035  0.49688625  0.53091497    -0.78400
C447        C  0.54028475  0.02824604  0.55281159     0.82300
N448        N  0.54050578  0.02964739  0.59947703    -0.78400
C449        C  0.01228727  0.49974990  0.62428946     0.82400
N450        N  0.98391197  0.46824666  0.60227793    -0.80100
C451        C  0.65062590  0.09170862  0.50826592    -0.02200
C452        C  0.62998058  0.12760865  0.48135692     0.07500
C453        C  0.57982728  0.12946417  0.47602024    -0.02300
C454        C  0.55027291  0.09601208  0.49842969    -0.02300
C455        C  0.57101090  0.06076419  0.52615838     0.07600
C456        C  0.62125407  0.05810763  0.53035776    -0.02500
Br457      Br  0.64987935  0.00878266  0.56695029    -0.01000
Br458      Br  0.71888096  0.09118667  0.51844889    -0.01100
Br459      Br  0.98131852  0.10092085  0.49424202    -0.01100
Br460      Br  0.55168687  0.17862845  0.43928001    -0.01100
C461        C  0.96851892  0.39619122  0.50603120    -0.02200
C462        C  0.95060563  0.43492865  0.53163740     0.07500
C463        C  0.90076496  0.44351900  0.53434152    -0.02300
C464        C  0.86877592  0.41350650  0.51139175    -0.02300
C465        C  0.88644068  0.37392436  0.48672462     0.07600
C466        C  0.93639867  0.36504855  0.48457691    -0.02500
Br467      Br  0.96068936  0.30931023  0.45362289    -0.01000
Br468      Br  0.03688454  0.38449281  0.50247143    -0.01100
Br469      Br  0.80052292  0.42519926  0.51604444    -0.01100
Br470      Br  0.87649632  0.49644579  0.56990176    -0.01100
C471        C  0.55591946  0.38709167  0.36631495    -0.02200
C472        C  0.56236183  0.43648424  0.36638672     0.07500
C473        C  0.60127608  0.45656242  0.38990086    -0.02300
C474        C  0.63481553  0.42709405  0.41163515    -0.02300
C475        C  0.62957499  0.37753793  0.40993829     0.07600
C476        C  0.58997363  0.35759303  0.38724753    -0.02500
Br477      Br  0.58427568  0.28985045  0.38138370    -0.01000
Br478      Br  0.99954361  0.36009276  0.33877003    -0.01100
Br479      Br  0.68817617  0.45455788  0.44350554    -0.01100
Br480      Br  0.61038307  0.02445201  0.39007222    -0.01100
C481        C  0.91633537  0.14342386  0.38456786    -0.02200
C482        C  0.88069216  0.12662433  0.41529169     0.07500
C483        C  0.87689576  0.07793251  0.42455597    -0.02300
C484        C  0.90712586  0.04565565  0.40133527    -0.02300
C485        C  0.94180199  0.06233487  0.36943463     0.07600
C486        C  0.94730222  0.11132411  0.36204464    -0.02500
Br487      Br  0.99723561  0.13461667  0.32131908    -0.01000
Br488      Br  0.92056289  0.21026092  0.37119177    -0.01100
Br489      Br  0.89837294  0.97852988  0.41052110    -0.01100
Br490      Br  0.82979603  0.05559550  0.46842054    -0.01100
C491        C  0.73120388  0.29299842  0.19964806    -0.02200
C492        C  0.74674760  0.25300351  0.17441868     0.07500
C493        C  0.76818064  0.21464537  0.19737443    -0.02300
C494        C  0.77376297  0.21611740  0.24541704    -0.02300
C495        C  0.75689955  0.25554544  0.27093107     0.07600
C496        C  0.73575764  0.29409035  0.24782288    -0.02500
Br497      Br  0.71037061  0.34726713  0.28232190    -0.01000
Br498      Br  0.70200217  0.34563769  0.16823411    -0.01100
Br499      Br  0.80676716  0.16508604  0.27595361    -0.01100
Br500      Br  0.79120748  0.16067128  0.16262632    -0.01100
C501        C  0.81049714  0.37953441  0.97432722    -0.02200
C502        C  0.86076918  0.37425148  0.97689212     0.07500
C503        C  0.88030876  0.33566096  0.00105087    -0.02300
C504        C  0.84980945  0.30353333  0.02394914    -0.02300
C505        C  0.79967663  0.31007858  0.02299705     0.07600
C506        C  0.77993126  0.34724327  0.99712850    -0.02500
Br507      Br  0.71115894  0.35601352  0.99599067    -0.01000
Br508      Br  0.78345869  0.43172299  0.94102104    -0.01100
Br509      Br  0.87674365  0.25090480  0.05725891    -0.01100
Br510      Br  0.94903080  0.32926149  0.00654738    -0.01100
C511        C  0.66617893  0.11644594  0.98650236    -0.02200
C512        C  0.61601371  0.12023327  0.99235733     0.07500
C513        C  0.59610612  0.15802150  0.01815145    -0.02300
C514        C  0.62647311  0.19095897  0.03937940    -0.02300
C515        C  0.67673805  0.18688986  0.03379984     0.07600
C516        C  0.69646756  0.15041411  0.00615499    -0.02500
Br517      Br  0.76509053  0.14622278  0.99596643    -0.01000
Br518      Br  0.69319460  0.06423500  0.95195888    -0.01100
Br519      Br  0.59929216  0.24235844  0.07516303    -0.01100
Br520      Br  0.52731598  0.16351510  0.02615101    -0.01100
C521        C  0.49151657  0.03956080  0.69887773    -0.02200
C522        C  0.01240959  0.50128343  0.67497212     0.07500
C523        C  0.03466562  0.46463811  0.69963876    -0.02300
C524        C  0.03160685  0.46387252  0.74800032    -0.02300
C525        C  0.00711309  0.50040628  0.77188011     0.07600
C526        C  0.48868618  0.03917886  0.74727875    -0.02500
Br527      Br  0.45701066  0.09058463  0.77960945    -0.01000
Br528      Br  0.46555640  0.09232242  0.66513928    -0.01100
Br529      Br  0.06227409  0.41352231  0.78151257    -0.01100
Br530      Br  0.07147724  0.41695105  0.66694473    -0.01100
C531        C  0.96081727  0.95948840  0.15140374    -0.02200
C532        C  0.98781069  0.99245873  0.12543951     0.07500
C533        C  0.51727684  0.52575657  0.14779322    -0.02300
C534        C  0.51967401  0.52590122  0.19602075    -0.02300
C535        C  0.99261735  0.99276883  0.22214471     0.07600
C536        C  0.96312010  0.95974166  0.19980253    -0.02500
Br537      Br  0.92556783  0.91538594  0.23565089    -0.01000
Br538      Br  0.92154495  0.91361897  0.12047762    -0.01100
Br539      Br  0.56050140  0.57076474  0.22644430    -0.01100
Br540      Br  0.55436194  0.57079622  0.11229032    -0.01100
C541        C  0.71661087  0.22500279  0.69818745    -0.02200
C542        C  0.75058760  0.25204135  0.72198927     0.07500
C543        C  0.78468739  0.27932834  0.69749345    -0.02300
C544        C  0.78456943  0.27989115  0.64911599    -0.02300
C545        C  0.75051381  0.25287313  0.62521250     0.07600
C546        C  0.71692290  0.22494768  0.64979316    -0.02500
Br547      Br  0.67324751  0.18459515  0.61714191    -0.01000
Br548      Br  0.67010241  0.18767874  0.73215086    -0.01100
Br549      Br  0.83051325  0.31830140  0.61551924    -0.01100
Br550      Br  0.83114871  0.31624786  0.73042251    -0.01100
C551        C  0.88285194  0.17498393  0.91108129    -0.02200
C552        C  0.87185967  0.12626395  0.91255433     0.07500
C553        C  0.82985326  0.10945732  0.89164302    -0.00900
C554        C  0.79918296  0.14113717  0.86911965    -0.02300
C555        C  0.81056806  0.18959422  0.86731394     0.07600
C556        C  0.85199719  0.20667750  0.88877205    -0.02500
Br557      Br  0.86778097  0.27311071  0.88517433    -0.01000
Br558      Br  0.94087892  0.19822817  0.93836380    -0.01100
Br559      Br  0.74192373  0.11823150  0.83992057    -0.01100
Br560      Br  0.81647617  0.04259476  0.89012315    -0.01100
C561        C  0.61645271  0.32207461  0.91989529    -0.02200
C562        C  0.61792985  0.37125716  0.91229143     0.07500
C563        C  0.65381802  0.39085381  0.88337551    -0.02300
C564        C  0.68781016  0.36126087  0.86153761    -0.02300
C565        C  0.68590868  0.31192693  0.86849256     0.07600
C566        C  0.65074433  0.29238025  0.89841564    -0.02500
Br567      Br  0.64748977  0.22475430  0.90787047    -0.01000
Br568      Br  0.56696072  0.29540884  0.95896015    -0.01100
Br569      Br  0.73719791  0.38850960  0.82233740    -0.01100
Br570      Br  0.65438973  0.45811145  0.87126775    -0.01100
C571        C  0.71982685  0.78119454  0.84297743     0.79900
N572        N  0.74979027  0.75194543  0.86587613    -0.78400
C573        C  0.78007696  0.72279665  0.84224737     0.82300
N574        N  0.78063747  0.72299582  0.79554976    -0.78400
C575        C  0.75088555  0.75244820  0.77254525     0.82400
N576        N  0.72034330  0.78131242  0.79627778    -0.80100
Zn577      Zn  0.98143320  0.94338907  0.90784552     1.49700
Zn578      Zn  0.54509082  0.98366998  0.98851605     1.49400
Zn579      Zn  0.00690723  0.55071859  0.91156514     1.49100
Zn580      Zn  0.93522578  0.50793727  0.98648767     1.49500
O581        O  0.99170303  0.99610643  0.94886151    -1.84500
O582        O  0.53955355  0.90165429  0.90781629    -0.75100
O583        O  0.58480898  0.54242481  0.99474667    -0.74900
O584        O  0.02237592  0.53165756  0.84600072    -0.74400
O585        O  0.58690102  0.93131076  0.96172602    -0.75100
O586        O  0.97869790  0.96572631  0.84172254    -0.74700
O587        O  0.55784713  0.59112094  0.94083304    -0.75300
O588        O  0.89799983  0.56436760  0.96172127    -0.74700
O589        O  0.52152858  0.47101935  0.05326675    -0.75400
O590        O  0.94848600  0.59064272  0.90724448    -0.74800
O591        O  0.95384042  0.51379301  0.05363330    -0.75300
O592        O  0.89277824  0.95027697  0.98468217    -0.75200
O593        O  0.92404946  0.90451910  0.92924860    -0.75000
C594        C  0.57902823  0.90223854  0.92917305     0.76800
C595        C  0.58498695  0.58240115  0.97461877     0.77300
C596        C  0.00259464  0.99917966  0.82266893     0.76300
C597        C  0.90837364  0.59251421  0.92868284     0.76600
C598        C  0.98724606  0.49204502  0.07472071     0.77800
C599        C  0.89332525  0.91206094  0.96151598     0.76800
C600        C  0.76858952  0.77898995  0.05087285     0.79900
N601        N  0.77124639  0.78039510  0.09740442    -0.78400
C602        C  0.74296673  0.75176504  0.12371949     0.82300
N603        N  0.71208578  0.72141180  0.10321877    -0.78400
C604        C  0.70931896  0.72008397  0.05655878     0.82400
N605        N  0.73764383  0.74891320  0.03056389    -0.80100
C606        C  0.52870462  0.96716857  0.34178892     0.79900
N607        N  0.52526225  0.96445990  0.29526768    -0.78400
C608        C  0.99491234  0.49401726  0.27264348     0.82300
N609        N  0.96813464  0.52601668  0.29673122    -0.78400
C610        C  0.97135745  0.52844086  0.34317622     0.82400
N611        N  0.50173760  0.99911250  0.36557461    -0.80100
Zn612      Zn  0.80920337  0.74146415  0.48807201     1.49700
Zn613      Zn  0.74537415  0.70036836  0.40871433     1.49400
Zn614      Zn  0.69893190  0.76428309  0.48622633     1.49100
Zn615      Zn  0.76914631  0.80859781  0.40998976     1.49500
O616        O  0.75572990  0.75394476  0.44829697    -1.84500
O617        O  0.84987119  0.68711302  0.46422816    -0.75100
O618        O  0.69088516  0.65954449  0.43238252    -0.74900
O619        O  0.71725339  0.77305914  0.55301318    -0.74400
O620        O  0.80424465  0.66040373  0.40766643    -0.75100
O621        O  0.78637241  0.73263909  0.55350241    -0.74700
O622        O  0.65906873  0.70549084  0.48721181    -0.75300
O623        O  0.70918563  0.84821276  0.40746745    -0.74700
O624        O  0.73759250  0.72131699  0.34312975    -0.75400
O625        O  0.65855401  0.81703501  0.45936827    -0.74800
O626        O  0.77961052  0.78850250  0.34307935    -0.75300
O627        O  0.82388201  0.84779089  0.43708910    -0.75200
O628        O  0.85093385  0.79860102  0.49069051    -0.75000
C629        C  0.84258117  0.65917741  0.43071077     0.76800
C630        C  0.66067127  0.66673616  0.46504295     0.77300
C631        C  0.75132794  0.75284319  0.57452799     0.76300
C632        C  0.66803254  0.84649281  0.42723903     0.76600
C633        C  0.75848107  0.75510732  0.32169808     0.77800
C634        C  0.85232968  0.83811919  0.46986641     0.76800
C635        C  0.98350305  0.96682149  0.55567130     0.79900
N636        N  0.01171751  0.99692548  0.53098044    -0.78400
C637        C  0.54038440  0.52831324  0.55278814     0.82300
N638        N  0.54040082  0.52982483  0.59945735    -0.78400
C639        C  0.01242381  0.99957986  0.62436119     0.82400
N640        N  0.98390710  0.96817285  0.60238401    -0.80100
C641        C  0.65065560  0.59220271  0.50863085    -0.02200
C642        C  0.62998320  0.62780772  0.48138634     0.07500
C643        C  0.57987356  0.62932696  0.47569778    -0.02300
C644        C  0.55036824  0.59581754  0.49808450    -0.02300
C645        C  0.57111189  0.56087258  0.52617201     0.07600
C646        C  0.62133712  0.55856453  0.53073128    -0.02500
Br647      Br  0.65002528  0.50964137  0.56776801    -0.01000
Br648      Br  0.71886555  0.59211030  0.51914497    -0.01100
Br649      Br  0.98144083  0.60023418  0.49333024    -0.01100
Br650      Br  0.55171892  0.67811200  0.43850759    -0.01100
C651        C  0.96839780  0.89629139  0.50605034    -0.02200
C652        C  0.95042655  0.93491509  0.53178570     0.07500
C653        C  0.90056063  0.94333297  0.53464563    -0.02300
C654        C  0.86862238  0.91335309  0.51159388    -0.02300
C655        C  0.88635756  0.87388255  0.48680349     0.07600
C656        C  0.93632330  0.86508430  0.48463157    -0.02500
Br657      Br  0.96067702  0.80930865  0.45378559    -0.01000
Br658      Br  0.03679425  0.88482943  0.50226323    -0.01100
Br659      Br  0.80034241  0.92490533  0.51628662    -0.01100
Br660      Br  0.87617723  0.99592191  0.57060640    -0.01100
C661        C  0.55589265  0.88716759  0.36665832    -0.02200
C662        C  0.56247120  0.93653609  0.36646037     0.07500
C663        C  0.60159606  0.95664686  0.38962230    -0.02300
C664        C  0.63522734  0.92721025  0.41125744    -0.02300
C665        C  0.62979053  0.87766111  0.40989947     0.07600
C666        C  0.58999563  0.85769518  0.38753508    -0.02500
Br667      Br  0.58412607  0.78994303  0.38194989    -0.01000
Br668      Br  0.99928600  0.86017775  0.33954322    -0.01100
Br669      Br  0.68903450  0.95471033  0.44242505    -0.01100
Br670      Br  0.60994748  0.52437776  0.39067217    -0.01100
C671        C  0.91615112  0.64339944  0.38446252    -0.02200
C672        C  0.88043287  0.62658764  0.41509841     0.07500
C673        C  0.87654727  0.57788704  0.42428422    -0.02300
C674        C  0.90689296  0.54562319  0.40118257    -0.02300
C675        C  0.94165805  0.56231475  0.36937544     0.07600
C676        C  0.94713847  0.61130446  0.36196557    -0.02500
Br677      Br  0.99704978  0.63460625  0.32121210    -0.01000
Br678      Br  0.92043889  0.71024919  0.37114401    -0.01100
Br679      Br  0.89821136  0.47850114  0.41041634    -0.01100
Br680      Br  0.82910109  0.55552432  0.46780950    -0.01100
C681        C  0.73117370  0.79268224  0.19944659    -0.02200
C682        C  0.74721326  0.75282368  0.17429154     0.07500
C683        C  0.76899284  0.71471403  0.19731935    -0.02300
C684        C  0.77444477  0.71629415  0.24537480    -0.02300
C685        C  0.75709353  0.75556609  0.27081360     0.07600
C686        C  0.73557798  0.79385557  0.24763925    -0.02500
Br687      Br  0.70946291  0.84673140  0.28208531    -0.01000
Br688      Br  0.70151657  0.84498872  0.16791695    -0.01100
Br689      Br  0.80784935  0.66561922  0.27605524    -0.01100
Br690      Br  0.79258773  0.66090520  0.16267211    -0.01100
C691        C  0.81057317  0.87914982  0.97426386    -0.02200
C692        C  0.86085791  0.87382358  0.97660888     0.07500
C693        C  0.88048431  0.83504995  0.00043364    -0.02300
C694        C  0.85006947  0.80281059  0.02326349    -0.02300
C695        C  0.79994989  0.80946566  0.02264110     0.07600
C696        C  0.78009588  0.84673898  0.99699333    -0.02500
Br697      Br  0.71129995  0.85538590  0.99598447    -0.01000
Br698      Br  0.78340541  0.93160417  0.94144125    -0.01100
Br699      Br  0.87706831  0.74983520  0.05601169    -0.01100
Br700      Br  0.94921243  0.82859870  0.00570178    -0.01100
C701        C  0.66669039  0.61556785  0.98693609    -0.02200
C702        C  0.61650797  0.61975728  0.99231691     0.07500
C703        C  0.59662142  0.65779038  0.01777912    -0.02300
C704        C  0.62701564  0.69067367  0.03902769    -0.02300
C705        C  0.67727739  0.68621968  0.03389403     0.07600
C706        C  0.69702608  0.64943111  0.00666870    -0.02500
Br707      Br  0.76571584  0.64469869  0.99718648    -0.01000
Br708      Br  0.69366357  0.56292353  0.95299409    -0.01100
Br709      Br  0.59990038  0.74252740  0.07422609    -0.01100
Br710      Br  0.52781890  0.66363401  0.02540155    -0.01100
C711        C  0.48955079  0.53877223  0.69880340    -0.02200
C712        C  0.01264818  0.00110791  0.67506157     0.07500
C713        C  0.03327000  0.96354777  0.69976630    -0.02300
C714        C  0.03026505  0.96295978  0.74813587    -0.02300
C715        C  0.00728843  0.00044588  0.77199936     0.07600
C716        C  0.48683399  0.53831594  0.74720766    -0.02500
Br717      Br  0.45322021  0.58844250  0.77966782    -0.01000
Br718      Br  0.46125445  0.59031460  0.66505849    -0.01100
Br719      Br  0.05917189  0.91158545  0.78167595    -0.01100
Br720      Br  0.06794827  0.91431492  0.66712695    -0.01100
C721        C  0.96059450  0.46005206  0.15132250    -0.02200
C722        C  0.98781429  0.49284189  0.12536152     0.07500
C723        C  0.51708346  0.02553278  0.14786901    -0.02300
C724        C  0.51946728  0.02571420  0.19609288    -0.02300
C725        C  0.99265941  0.49306761  0.22205902     0.07600
C726        C  0.96288152  0.46029386  0.19971684    -0.02500
Br727      Br  0.92485847  0.41632498  0.23556784    -0.01000
Br728      Br  0.92103833  0.41442737  0.12039336    -0.01100
Br729      Br  0.56017407  0.07070145  0.22649289    -0.01100
Br730      Br  0.55395429  0.07073449  0.11237249    -0.01100
C731        C  0.71731103  0.72508566  0.69829894    -0.02200
C732        C  0.75103546  0.75254998  0.72197489     0.07500
C733        C  0.78475701  0.78016606  0.69735026    -0.02300
C734        C  0.78455602  0.78056527  0.64896948    -0.02300
C735        C  0.75076924  0.75309773  0.62519489     0.07600
C736        C  0.71753620  0.72488858  0.64990654    -0.02500
Br737      Br  0.67421560  0.68401453  0.61744012    -0.01000
Br738      Br  0.67120071  0.68745757  0.73244050    -0.01100
Br739      Br  0.83005432  0.81930121  0.61518121    -0.01100
Br740      Br  0.83079982  0.81775884  0.73010471    -0.01100
C741        C  0.88404477  0.67537755  0.91012473    -0.02200
C742        C  0.87262796  0.62676608  0.91224783     0.07500
C743        C  0.83019431  0.61010289  0.89200544    -0.00900
C744        C  0.79944354  0.64182518  0.86964049    -0.02300
C745        C  0.81122161  0.69015973  0.86722836     0.07600
C746        C  0.85313171  0.70710180  0.88792716    -0.02500
Br747      Br  0.86938586  0.77337416  0.88351406    -0.01000
Br748      Br  0.94272091  0.69843371  0.93631471    -0.01100
Br749      Br  0.74155500  0.61913025  0.84142134    -0.01100
Br750      Br  0.81635963  0.54331855  0.89101582    -0.01100
C751        C  0.61647109  0.82217419  0.91949559    -0.02200
C752        C  0.61796533  0.87139606  0.91207316     0.07500
C753        C  0.65394828  0.89108411  0.88332200    -0.02300
C754        C  0.68813939  0.86158486  0.86164786    -0.02300
C755        C  0.68628247  0.81223882  0.86850399     0.07600
C756        C  0.65095983  0.79257403  0.89817342    -0.02500
Br757      Br  0.64783160  0.72492072  0.90754601    -0.01000
Br758      Br  0.56660993  0.79528135  0.95795926    -0.01100
Br759      Br  0.73777111  0.88896745  0.82282294    -0.01100
Br760      Br  0.65427762  0.95830494  0.87104031    -0.01100
loop_ 
_geom_bond_atom_site_label_1 
_geom_bond_atom_site_label_2 
_geom_bond_distance 
_geom_bond_site_symmetry_2 
_ccdc_geom_bond_type 
C1            N2   1.355       .  A
C1            N6   1.359       .  A
C1          C185   1.470       .  S
N2            C3   1.355       .  A
C3            N4   1.359       .  A
C3          C175   1.465       .  S
N4            C5   1.357       .  A
C5            N6   1.356       .  A
C5          C162   1.471       .  S
Zn7          O11   1.932       .  S
Zn7          O16   2.028       .  S
Zn7          O23   2.029       .  S
Zn7         O392   1.998       .  S
Zn8         O391   1.928   1_455  S
Zn8          O15   2.025       .  S
Zn8         O203   2.008       .  S
Zn8         O209   2.015   1_556  S
Zn9         O201   1.926   1_545  S
Zn9          O14   2.021       .  S
Zn9          O20   1.982       .  S
Zn9         O397   2.021       .  S
Zn10        O201   1.933   1_545  S
Zn10         O18   2.037       .  S
Zn10         O21   2.036   1_556  S
Zn10        O212   2.004   1_545  S
O11        Zn388   1.928       .  S
O11        Zn199   1.926       .  S
O11        Zn200   1.933       .  S
O12        Zn387   1.998   1_455  S
O12          C24   1.271       .  A
O13        Zn198   2.010   1_545  S
O13          C25   1.272       .  A
O14         C216   1.277   1_545  A
O15          C24   1.275       .  A
O16          C26   1.278       .  A
O17        Zn389   2.021       .  S
O17          C25   1.273       .  A
O18          C27   1.277       .  A
O19        Zn198   2.016   1_554  S
O19         C408   1.276   1_455  A
O20          C27   1.270       .  A
O21          C28   1.278   1_545  A
O22        Zn200   2.005       .  S
O22          C29   1.272       .  A
O23          C29   1.276       .  A
C24         C182   1.468       .  S
C25         C132   1.473       .  S
C26         C145   1.478       .  S
C26         O204   1.277       .  A
C27         C172   1.471       .  S
C28         C152   1.474       .  S
C28         O399   1.276       .  A
C29         C122   1.472       .  S
C30          N31   1.357       .  A
C30          N35   1.354       .  A
C30         C125   1.469       .  S
N31          C32   1.358       .  A
C32          N33   1.360       .  A
C32         C112   1.478       .  S
N33          C34   1.361       .  A
C34          N35   1.357       .  A
C34         C135   1.473       .  S
C36          N37   1.361       .  A
C36          N41   1.354       .  A
C36          C92   1.472       .  S
N37         C608   1.360   1_455  A
C38          N39   1.357   1_565  A
C38         N607   1.359       .  A
C38         C155   1.475       .  S
N39          C40   1.358       .  A
C40         N611   1.354   1_545  A
C40         C105   1.467       .  S
N41         C610   1.354   1_455  A
Zn42         O46   1.932       .  S
Zn42         O47   2.021       .  S
Zn42         O51   2.012       .  S
Zn42         O58   1.993       .  S
Zn43         O46   1.927       .  S
Zn43         O48   2.019       .  S
Zn43         O50   1.987       .  S
Zn43         O54   2.013       .  S
Zn44         O46   1.933       .  S
Zn44         O49   2.032       .  S
Zn44         O52   1.999       .  S
Zn44         O55   2.029       .  S
Zn45         O46   1.938       .  S
Zn45         O53   2.010       .  S
Zn45         O56   2.043       .  S
Zn45         O57   2.054       .  S
O47          C59   1.274       .  A
O48          C60   1.273       .  A
O49          C61   1.278       .  A
O50          C59   1.270       .  A
O51          C61   1.275       .  A
O52          C60   1.271       .  A
O53          C62   1.273       .  A
O54          C63   1.276       .  A
O55          C62   1.276       .  A
O56          C63   1.280       .  A
O57          C64   1.279       .  A
O58          C64   1.270       .  A
C59         C102   1.463       .  S
C60          C72   1.468       .  S
C61         C165   1.474       .  S
C62          C95   1.475       .  S
C63         C115   1.482       .  S
C64          C85   1.477       .  S
C65          N66   1.356       .  A
C65          N70   1.360       .  A
C65          C82   1.472       .  S
N66         C637   1.356       .  A
C67          N68   1.358       .  A
C67         N636   1.356   1_545  A
C67          C75   1.468       .  S
N68         C639   1.356   1_545  A
C69          N70   1.359       .  A
C69         N638   1.356       .  A
C69         C142   1.475       .  S
C71          C72   1.408       .  A
C71          C76   1.402       .  A
C71         Br78   1.926       .  S
C72          C73   1.407       .  A
C73          C74   1.407       .  A
C73         Br80   1.925       .  S
C74          C75   1.410       .  A
C74        Br459   1.928   1_455  S
C75          C76   1.407       .  A
C76         Br77   1.932       .  S
Br79        C454   1.928       .  S
C81          C82   1.409       .  A
C81          C86   1.409       .  A
C81         Br88   1.930       .  S
C82          C83   1.407       .  A
C83          C84   1.407       .  A
C83         Br90   1.931       .  S
C84          C85   1.411       .  A
C84         Br89   1.928       .  S
C85          C86   1.412       .  A
C86         Br87   1.928       .  S
C91          C92   1.407       .  A
C91          C96   1.407       .  A
C91        Br478   1.932   1_455  S
C92          C93   1.411       .  A
C93          C94   1.407       .  A
C93        Br290   1.931       .  S
C94          C95   1.408       .  A
C94         Br99   1.928       .  S
C95          C96   1.412       .  A
C96         Br97   1.928       .  S
Br98        C471   1.932       .  S
Br100       C283   1.931   1_545  S
C101        C102   1.407       .  A
C101        C106   1.403       .  A
C101       Br108   1.931       .  S
C102        C103   1.405       .  A
C103        C104   1.404       .  A
C103       Br110   1.921       .  S
C104        C105   1.409       .  A
C104       Br109   1.930   1_545  S
C105        C106   1.409       .  A
C106       Br107   1.927       .  S
C111        C112   1.410       .  A
C111        C116   1.410       .  A
C111       Br118   1.930       .  S
C112        C113   1.409       .  A
C113        C114   1.410       .  A
C113       Br120   1.931       .  S
C114        C115   1.413       .  A
C114       Br119   1.932       .  S
C115        C116   1.412       .  A
C116       Br117   1.932       .  S
C121        C122   1.409       .  A
C121        C126   1.407       .  A
C121       Br128   1.923       .  S
C122        C123   1.410   1_556  A
C123        C124   1.404       .  A
C123       Br130   1.929       .  S
C124        C125   1.407       .  A
C124       Br129   1.931       .  S
C125        C126   1.408   1_554  A
C126       Br127   1.929       .  S
C131        C132   1.406       .  A
C131        C136   1.406   1_556  A
C131       Br138   1.928       .  S
C132        C133   1.411   1_556  A
C133        C134   1.408       .  A
C133       Br140   1.929       .  S
C134        C135   1.409       .  A
C134       Br139   1.931       .  S
C135        C136   1.411       .  A
C136       Br137   1.930   1_554  S
C141        C146   1.409       .  A
C141        C712   1.410   1_655  A
C141       Br148   1.930       .  S
C142        C143   1.408       .  A
C142        C711   1.409       .  A
C143        C144   1.408       .  A
C143       Br150   1.930       .  S
C144        C145   1.411       .  A
C144       Br149   1.930       .  S
C145        C716   1.411       .  A
C146        C715   1.411   1_655  A
C146       Br147   1.932       .  S
C151        C152   1.409       .  A
C151        C156   1.411       .  A
C151       Br158   1.929       .  S
C152        C723   1.408   1_565  A
C153        C154   1.406       .  A
C153        C722   1.408   1_455  A
C153       Br160   1.929       .  S
C154        C725   1.408   1_455  A
C154       Br159   1.929       .  S
C155        C156   1.410       .  A
C155        C724   1.408   1_565  A
C156       Br157   1.928       .  S
C161        C162   1.408       .  A
C161        C166   1.408       .  A
C161       Br168   1.930       .  S
C162        C163   1.408       .  A
C163        C164   1.408       .  A
C163       Br170   1.930       .  S
C164        C165   1.410       .  A
C164       Br169   1.931       .  S
C165        C166   1.410       .  A
C166       Br167   1.930       .  S
C171        C172   1.411       .  A
C171        C176   1.405       .  A
C171       Br178   1.928       .  S
C172        C173   1.410       .  A
C173        C174   1.405       .  A
C173       Br180   1.926       .  S
C174        C175   1.406       .  A
C174       Br179   1.931       .  S
C175        C176   1.406       .  A
C176       Br177   1.930       .  S
C181        C182   1.407       .  A
C181        C186   1.407       .  A
C181       Br188   1.925       .  S
C182        C183   1.409       .  A
C183        C184   1.404       .  A
C183       Br190   1.932       .  S
C184        C185   1.409       .  A
C184       Br189   1.932       .  S
C185        C186   1.412       .  A
C186       Br187   1.932       .  S
C191        N192   1.355       .  A
C191        N196   1.359       .  A
C191        C375   1.470       .  S
N192        C193   1.355       .  A
C193        N194   1.359       .  A
C193        C365   1.465       .  S
N194        C195   1.357       .  A
C195        N196   1.356       .  A
C195        C352   1.471       .  S
Zn197       O201   1.933       .  S
Zn197       O582   1.998       .  S
Zn197       O206   2.027       .  S
Zn197       O213   2.028       .  S
Zn198       O581   1.928   1_455  S
Zn198       O205   2.026       .  S
Zn199       O204   2.021       .  S
Zn199       O587   2.021       .  S
Zn199       O210   1.981       .  S
Zn200       O208   2.037       .  S
Zn200       O211   2.037   1_556  S
O201       Zn578   1.928       .  S
O202       Zn577   1.998   1_455  S
O202        C214   1.271       .  A
O203        C215   1.272       .  A
O205        C214   1.276       .  A
O206        C216   1.278       .  A
O207       Zn579   2.021       .  S
O207        C215   1.273       .  A
O208        C217   1.277       .  A
O209        C598   1.276   1_455  A
O210        C217   1.270       .  A
O211        C218   1.278       .  A
O212        C219   1.272       .  A
O213        C219   1.276       .  A
C214        C372   1.468       .  S
C215        C322   1.472       .  S
C216        C335   1.478   1_565  S
C217        C362   1.471       .  S
C218        C342   1.474       .  S
C218        O589   1.276       .  A
C219        C312   1.472       .  S
C220        N221   1.358       .  A
C220        N225   1.354       .  A
C220        C315   1.468       .  S
N221        C222   1.357       .  A
C222        N223   1.360       .  A
C222        C302   1.479       .  S
N223        C224   1.362       .  A
C224        N225   1.356       .  A
C224        C325   1.473       .  S
C226        N227   1.361       .  A
C226        N231   1.354       .  A
C226        C282   1.471       .  S
N227        C418   1.359   1_455  A
C228        N417   1.360       .  A
C228        N229   1.357       .  A
C228        C345   1.474       .  S
N229        C230   1.358       .  A
C230        N421   1.354       .  A
C230        C295   1.467       .  S
N231        C420   1.354   1_465  A
Zn232       O236   1.932       .  S
Zn232       O237   2.020       .  S
Zn232       O241   2.012       .  S
Zn232       O248   1.992       .  S
Zn233       O236   1.927       .  S
Zn233       O238   2.018       .  S
Zn233       O240   1.986       .  S
Zn233       O244   2.013       .  S
Zn234       O236   1.933       .  S
Zn234       O239   2.033       .  S
Zn234       O242   1.999       .  S
Zn234       O245   2.028       .  S
Zn235       O236   1.937       .  S
Zn235       O243   2.008       .  S
Zn235       O246   2.043       .  S
Zn235       O247   2.053       .  S
O237        C249   1.274       .  A
O238        C250   1.273       .  A
O239        C251   1.278       .  A
O240        C249   1.270       .  A
O241        C251   1.275       .  A
O242        C250   1.271       .  A
O243        C252   1.273       .  A
O244        C253   1.276       .  A
O245        C252   1.276       .  A
O246        C253   1.280       .  A
O247        C254   1.279       .  A
O248        C254   1.270       .  A
C249        C292   1.463       .  S
C250        C262   1.468       .  S
C251        C355   1.474       .  S
C252        C285   1.475       .  S
C253        C305   1.482       .  S
C254        C275   1.476       .  S
C255        N256   1.356       .  A
C255        N260   1.360       .  A
C255        C272   1.472       .  S
N256        C447   1.356   1_565  A
C257        N446   1.356       .  A
C257        N258   1.359       .  A
C257        C265   1.469       .  S
N258        C449   1.356       .  A
C259        N448   1.356   1_565  A
C259        N260   1.359       .  A
C259        C332   1.476   1_565  S
C261        C262   1.408       .  A
C261        C266   1.402       .  A
C261       Br268   1.927       .  S
C262        C263   1.407       .  A
C263        C264   1.407       .  A
C263       Br270   1.925       .  S
C264        C265   1.410       .  A
C264       Br649   1.928   1_455  S
C265        C266   1.407       .  A
C266       Br267   1.932       .  S
Br269       C644   1.928       .  S
C271        C272   1.409       .  A
C271        C276   1.409       .  A
C271       Br278   1.930       .  S
C272        C273   1.408       .  A
C273        C274   1.407       .  A
C273       Br280   1.931       .  S
C274        C275   1.411       .  A
C274       Br279   1.928       .  S
C275        C276   1.411       .  A
C276       Br277   1.928       .  S
C281        C282   1.407       .  A
C281        C286   1.406       .  A
C281       Br668   1.932   1_455  S
C282        C283   1.410       .  A
C283        C284   1.407       .  A
C284        C285   1.409       .  A
C284       Br289   1.928       .  S
C285        C286   1.412       .  A
C286       Br287   1.928       .  S
Br288       C661   1.932       .  S
C291        C292   1.407       .  A
C291        C296   1.403       .  A
C291       Br298   1.931       .  S
C292        C293   1.405       .  A
C293        C294   1.404       .  A
C293       Br300   1.921       .  S
C294        C295   1.409       .  A
C294       Br299   1.930       .  S
C295        C296   1.409       .  A
C296       Br297   1.927       .  S
C301        C302   1.410       .  A
C301        C306   1.410       .  A
C301       Br308   1.930       .  S
C302        C303   1.409       .  A
C303        C304   1.410       .  A
C303       Br310   1.931       .  S
C304        C305   1.413       .  A
C304       Br309   1.932       .  S
C305        C306   1.412       .  A
C306       Br307   1.931       .  S
C311        C312   1.409       .  A
C311        C316   1.407       .  A
C311       Br318   1.923       .  S
C312        C313   1.410   1_556  A
C313        C314   1.404       .  A
C313       Br320   1.928       .  S
C314        C315   1.406       .  A
C314       Br319   1.931       .  S
C315        C316   1.408   1_554  A
C316       Br317   1.929       .  S
C321        C322   1.406       .  A
C321        C326   1.406   1_556  A
C321       Br328   1.928       .  S
C322        C323   1.411   1_556  A
C323        C324   1.408       .  A
C323       Br330   1.929       .  S
C324        C325   1.409       .  A
C324       Br329   1.931       .  S
C325        C326   1.411       .  A
C326       Br327   1.930   1_554  S
C331        C522   1.409   1_655  A
C331        C336   1.409       .  A
C331       Br338   1.930       .  S
C332        C521   1.410       .  A
C332        C333   1.408   1_545  A
C333        C334   1.408       .  A
C333       Br340   1.930       .  S
C334        C335   1.411   1_565  A
C334       Br339   1.930       .  S
C335        C526   1.411       .  A
C336        C525   1.411   1_655  A
C336       Br337   1.932       .  S
C341        C342   1.409       .  A
C341        C346   1.411       .  A
C341       Br348   1.929       .  S
C342        C533   1.408       .  A
C343        C532   1.408   1_445  A
C343        C344   1.406       .  A
C343       Br350   1.928       .  S
C344        C535   1.408   1_445  A
C344       Br349   1.929       .  S
C345        C534   1.408       .  A
C345        C346   1.410       .  A
C346       Br347   1.928       .  S
C351        C352   1.408       .  A
C351        C356   1.408       .  A
C351       Br358   1.930       .  S
C352        C353   1.408       .  A
C353        C354   1.408       .  A
C353       Br360   1.930       .  S
C354        C355   1.410       .  A
C354       Br359   1.931       .  S
C355        C356   1.410       .  A
C356       Br357   1.929       .  S
C361        C362   1.411       .  A
C361        C366   1.405       .  A
C361       Br368   1.928       .  S
C362        C363   1.410       .  A
C363        C364   1.405       .  A
C363       Br370   1.926       .  S
C364        C365   1.406       .  A
C364       Br369   1.931       .  S
C365        C366   1.406       .  A
C366       Br367   1.930       .  S
C371        C372   1.407       .  A
C371        C376   1.407       .  A
C371       Br378   1.925       .  S
C372        C373   1.409       .  A
C373        C374   1.404       .  A
C373       Br380   1.932       .  S
C374        C375   1.409       .  A
C374       Br379   1.932       .  S
C375        C376   1.411       .  A
C376       Br377   1.932       .  S
C381        N382   1.355       .  A
C381        N386   1.359       .  A
C381        C565   1.470       .  S
N382        C383   1.355       .  A
C383        N384   1.359       .  A
C383        C555   1.465       .  S
N384        C385   1.357       .  A
C385        N386   1.356       .  A
C385        C542   1.471       .  S
Zn387       O391   1.932       .  S
Zn387       O396   2.028       .  S
Zn387       O403   2.029       .  S
Zn388       O583   2.008       .  S
Zn388       O395   2.025       .  S
Zn388       O589   2.015   1_556  S
Zn389       O581   1.926   1_445  S
Zn389       O394   2.021       .  S
Zn389       O400   1.982   1_455  S
Zn390       O581   1.933   1_545  S
Zn390       O398   2.037       .  S
Zn390       O401   2.036   1_556  S
Zn390       O592   2.004   1_545  S
O391       Zn579   1.926   1_655  S
O391       Zn580   1.933       .  S
O392        C404   1.271       .  A
O393       Zn578   2.010   1_545  S
O393        C405   1.272       .  A
O394        C596   1.277   1_545  A
O395        C404   1.275       .  A
O396        C406   1.278   1_655  A
O397        C405   1.273       .  A
O398        C407   1.277       .  A
O399       Zn578   2.016   1_554  S
O400        C407   1.270       .  A
O401        C408   1.278   1_545  A
O402       Zn580   2.005       .  S
O402        C409   1.272       .  A
O403        C409   1.276       .  A
C404        C562   1.468       .  S
C405        C512   1.473       .  S
C406        C525   1.478       .  S
C406        O584   1.277       .  A
C407        C552   1.471       .  S
C408        C532   1.474       .  S
C409        C502   1.472       .  S
C410        N411   1.357       .  A
C410        N415   1.354       .  A
C410        C505   1.469       .  S
N411        C412   1.358       .  A
C412        N413   1.360       .  A
C412        C492   1.478       .  S
N413        C414   1.361       .  A
C414        N415   1.357       .  A
C414        C515   1.473       .  S
C416        N417   1.361       .  A
C416        N421   1.354       .  A
C416        C472   1.472       .  S
C418        N419   1.357   1_565  A
C418        C535   1.475       .  S
N419        C420   1.358       .  A
C420        C485   1.467       .  S
Zn422       O426   1.932       .  S
Zn422       O427   2.021       .  S
Zn422       O431   2.012       .  S
Zn422       O438   1.993       .  S
Zn423       O426   1.927       .  S
Zn423       O428   2.019       .  S
Zn423       O430   1.987       .  S
Zn423       O434   2.013       .  S
Zn424       O426   1.933       .  S
Zn424       O429   2.032       .  S
Zn424       O432   1.999       .  S
Zn424       O435   2.029       .  S
Zn425       O426   1.938       .  S
Zn425       O433   2.010       .  S
Zn425       O436   2.043       .  S
Zn425       O437   2.054       .  S
O427        C439   1.274       .  A
O428        C440   1.273       .  A
O429        C441   1.278       .  A
O430        C439   1.270       .  A
O431        C441   1.275       .  A
O432        C440   1.271       .  A
O433        C442   1.273       .  A
O434        C443   1.276       .  A
O435        C442   1.276       .  A
O436        C443   1.280       .  A
O437        C444   1.279       .  A
O438        C444   1.270       .  A
C439        C482   1.463       .  S
C440        C452   1.468       .  S
C441        C545   1.474       .  S
C442        C475   1.475       .  S
C443        C495   1.482       .  S
C444        C465   1.477       .  S
C445        N446   1.356   1_655  A
C445        N450   1.360       .  A
C445        C462   1.472       .  S
C447        N448   1.358       .  A
C447        C455   1.468       .  S
C449        N450   1.358   1_455  A
C449        C522   1.475       .  S
C451        C452   1.408       .  A
C451        C456   1.402       .  A
C451       Br458   1.926       .  S
C452        C453   1.407       .  A
C453        C454   1.407       .  A
C453       Br460   1.925       .  S
C454        C455   1.410       .  A
C455        C456   1.407       .  A
C456       Br457   1.932       .  S
C461        C462   1.409       .  A
C461        C466   1.409       .  A
C461       Br468   1.930   1_655  S
C462        C463   1.407       .  A
C463        C464   1.407       .  A
C463       Br470   1.931       .  S
C464        C465   1.411       .  A
C464       Br469   1.928       .  S
C465        C466   1.412       .  A
C466       Br467   1.928       .  S
C471        C472   1.407       .  A
C471        C476   1.407       .  A
C472        C473   1.411       .  A
C473        C474   1.407       .  A
C473       Br670   1.931       .  S
C474        C475   1.408       .  A
C474       Br479   1.928       .  S
C475        C476   1.412       .  A
C476       Br477   1.928       .  S
Br480       C663   1.931   1_545  S
C481        C482   1.407       .  A
C481        C486   1.403       .  A
C481       Br488   1.931       .  S
C482        C483   1.405       .  A
C483        C484   1.404       .  A
C483       Br490   1.921       .  S
C484        C485   1.409       .  A
C484       Br489   1.930   1_545  S
C485        C486   1.409       .  A
C486       Br487   1.927       .  S
C491        C492   1.410       .  A
C491        C496   1.410       .  A
C491       Br498   1.930       .  S
C492        C493   1.409       .  A
C493        C494   1.410       .  A
C493       Br500   1.931       .  S
C494        C495   1.413       .  A
C494       Br499   1.932       .  S
C495        C496   1.412       .  A
C496       Br497   1.932       .  S
C501        C502   1.409       .  A
C501        C506   1.407       .  A
C501       Br508   1.923       .  S
C502        C503   1.410   1_556  A
C503        C504   1.404       .  A
C503       Br510   1.929       .  S
C504        C505   1.407       .  A
C504       Br509   1.931       .  S
C505        C506   1.408   1_554  A
C506       Br507   1.929       .  S
C511        C512   1.406       .  A
C511        C516   1.406   1_556  A
C511       Br518   1.928       .  S
C512        C513   1.411   1_556  A
C513        C514   1.408       .  A
C513       Br520   1.929       .  S
C514        C515   1.409       .  A
C514       Br519   1.931       .  S
C515        C516   1.411       .  A
C516       Br517   1.930   1_554  S
C521        C526   1.409       .  A
C521       Br528   1.930       .  S
C522        C523   1.408       .  A
C523        C524   1.408       .  A
C523       Br530   1.930       .  S
C524        C525   1.411       .  A
C524       Br529   1.930       .  S
C526       Br527   1.932       .  S
C531        C532   1.409       .  A
C531        C536   1.411       .  A
C531       Br538   1.929       .  S
C533        C534   1.406       .  A
C533       Br540   1.929       .  S
C534       Br539   1.929       .  S
C535        C536   1.410       .  A
C536       Br537   1.928       .  S
C541        C542   1.408       .  A
C541        C546   1.408       .  A
C541       Br548   1.930       .  S
C542        C543   1.408       .  A
C543        C544   1.408       .  A
C543       Br550   1.930       .  S
C544        C545   1.410       .  A
C544       Br549   1.931       .  S
C545        C546   1.410       .  A
C546       Br547   1.930       .  S
C551        C552   1.411       .  A
C551        C556   1.405       .  A
C551       Br558   1.928       .  S
C552        C553   1.410       .  A
C553        C554   1.405       .  A
C553       Br560   1.926       .  S
C554        C555   1.406       .  A
C554       Br559   1.931       .  S
C555        C556   1.406       .  A
C556       Br557   1.930       .  S
C561        C562   1.407       .  A
C561        C566   1.407       .  A
C561       Br568   1.925       .  S
C562        C563   1.409       .  A
C563        C564   1.404       .  A
C563       Br570   1.932       .  S
C564        C565   1.409       .  A
C564       Br569   1.932       .  S
C565        C566   1.412       .  A
C566       Br567   1.932       .  S
C571        N572   1.355       .  A
C571        N576   1.359       .  A
C571        C755   1.470       .  S
N572        C573   1.355       .  A
C573        N574   1.359       .  A
C573        C745   1.465       .  S
N574        C575   1.357       .  A
C575        N576   1.356       .  A
C575        C732   1.471       .  S
Zn577       O581   1.933       .  S
Zn577       O586   2.027       .  S
Zn577       O593   2.028       .  S
Zn578       O585   2.026       .  S
Zn579       O584   2.021       .  S
Zn579       O590   1.981   1_455  S
Zn580       O588   2.037       .  S
Zn580       O591   2.037   1_556  S
O582        C594   1.271       .  A
O583        C595   1.272       .  A
O585        C594   1.276       .  A
O586        C596   1.278   1_655  A
O587        C595   1.273       .  A
O588        C597   1.277       .  A
O590        C597   1.270       .  A
O591        C598   1.278       .  A
O592        C599   1.272       .  A
O593        C599   1.276       .  A
C594        C752   1.468       .  S
C595        C702   1.472       .  S
C596        C715   1.478   1_565  S
C597        C742   1.471       .  S
C598        C722   1.474       .  S
C599        C692   1.472       .  S
C600        N601   1.358       .  A
C600        N605   1.354       .  A
C600        C695   1.468       .  S
N601        C602   1.357       .  A
C602        N603   1.360       .  A
C602        C682   1.479       .  S
N603        C604   1.362       .  A
C604        N605   1.356       .  A
C604        C705   1.473       .  S
C606        N607   1.361       .  A
C606        N611   1.354       .  A
C606        C662   1.471       .  S
C608        N609   1.357       .  A
C608        C725   1.474       .  S
N609        C610   1.358       .  A
C610        C675   1.467       .  S
Zn612       O616   1.932       .  S
Zn612       O617   2.020       .  S
Zn612       O621   2.012       .  S
Zn612       O628   1.992       .  S
Zn613       O616   1.927       .  S
Zn613       O618   2.018       .  S
Zn613       O620   1.986       .  S
Zn613       O624   2.013       .  S
Zn614       O616   1.933       .  S
Zn614       O619   2.033       .  S
Zn614       O622   1.999       .  S
Zn614       O625   2.028       .  S
Zn615       O616   1.937       .  S
Zn615       O623   2.008       .  S
Zn615       O626   2.043       .  S
Zn615       O627   2.053       .  S
O617        C629   1.274       .  A
O618        C630   1.273       .  A
O619        C631   1.278       .  A
O620        C629   1.270       .  A
O621        C631   1.275       .  A
O622        C630   1.271       .  A
O623        C632   1.273       .  A
O624        C633   1.276       .  A
O625        C632   1.276       .  A
O626        C633   1.280       .  A
O627        C634   1.279       .  A
O628        C634   1.270       .  A
C629        C672   1.463       .  S
C630        C642   1.468       .  S
C631        C735   1.474       .  S
C632        C665   1.475       .  S
C633        C685   1.482       .  S
C634        C655   1.476       .  S
C635        N636   1.356   1_655  A
C635        N640   1.360       .  A
C635        C652   1.472       .  S
C637        N638   1.359       .  A
C637        C645   1.469       .  S
C639        N640   1.359   1_455  A
C639        C712   1.476   1_565  S
C641        C642   1.408       .  A
C641        C646   1.402       .  A
C641       Br648   1.927       .  S
C642        C643   1.407       .  A
C643        C644   1.407       .  A
C643       Br650   1.925       .  S
C644        C645   1.410       .  A
C645        C646   1.407       .  A
C646       Br647   1.932       .  S
C651        C652   1.409       .  A
C651        C656   1.409       .  A
C651       Br658   1.930   1_655  S
C652        C653   1.408       .  A
C653        C654   1.407       .  A
C653       Br660   1.931       .  S
C654        C655   1.411       .  A
C654       Br659   1.928       .  S
C655        C656   1.411       .  A
C656       Br657   1.928       .  S
C661        C662   1.407       .  A
C661        C666   1.406       .  A
C662        C663   1.410       .  A
C663        C664   1.407       .  A
C664        C665   1.409       .  A
C664       Br669   1.928       .  S
C665        C666   1.412       .  A
C666       Br667   1.928       .  S
C671        C672   1.407       .  A
C671        C676   1.403       .  A
C671       Br678   1.931       .  S
C672        C673   1.405       .  A
C673        C674   1.404       .  A
C673       Br680   1.921       .  S
C674        C675   1.409       .  A
C674       Br679   1.930       .  S
C675        C676   1.409       .  A
C676       Br677   1.927       .  S
C681        C682   1.410       .  A
C681        C686   1.410       .  A
C681       Br688   1.930       .  S
C682        C683   1.409       .  A
C683        C684   1.410       .  A
C683       Br690   1.931       .  S
C684        C685   1.413       .  A
C684       Br689   1.932       .  S
C685        C686   1.412       .  A
C686       Br687   1.931       .  S
C691        C692   1.409       .  A
C691        C696   1.407       .  A
C691       Br698   1.923       .  S
C692        C693   1.410   1_556  A
C693        C694   1.404       .  A
C693       Br700   1.928       .  S
C694        C695   1.406       .  A
C694       Br699   1.931       .  S
C695        C696   1.408   1_554  A
C696       Br697   1.929       .  S
C701        C702   1.406       .  A
C701        C706   1.406   1_556  A
C701       Br708   1.928       .  S
C702        C703   1.411   1_556  A
C703        C704   1.408       .  A
C703       Br710   1.929       .  S
C704        C705   1.409       .  A
C704       Br709   1.931       .  S
C705        C706   1.411       .  A
C706       Br707   1.930   1_554  S
C711        C716   1.409       .  A
C711       Br718   1.930       .  S
C712        C713   1.408   1_545  A
C713        C714   1.408       .  A
C713       Br720   1.930       .  S
C714        C715   1.411   1_565  A
C714       Br719   1.930       .  S
C716       Br717   1.932       .  S
C721        C722   1.409       .  A
C721        C726   1.411       .  A
C721       Br728   1.929       .  S
C723        C724   1.406       .  A
C723       Br730   1.928       .  S
C724       Br729   1.929       .  S
C725        C726   1.410       .  A
C726       Br727   1.928       .  S
C731        C732   1.408       .  A
C731        C736   1.408       .  A
C731       Br738   1.930       .  S
C732        C733   1.408       .  A
C733        C734   1.408       .  A
C733       Br740   1.930       .  S
C734        C735   1.410       .  A
C734       Br739   1.931       .  S
C735        C736   1.410       .  A
C736       Br737   1.929       .  S
C741        C742   1.411       .  A
C741        C746   1.405       .  A
C741       Br748   1.928       .  S
C742        C743   1.410       .  A
C743        C744   1.405       .  A
C743       Br750   1.926       .  S
C744        C745   1.406       .  A
C744       Br749   1.931       .  S
C745        C746   1.406       .  A
C746       Br747   1.930       .  S
C751        C752   1.407       .  A
C751        C756   1.407       .  A
C751       Br758   1.925       .  S
C752        C753   1.409       .  A
C753        C754   1.404       .  A
C753       Br760   1.932       .  S
C754        C755   1.409       .  A
C754       Br759   1.932       .  S
C755        C756   1.411       .  A
C756       Br757   1.932       .  S
