geometry optimzed in LAMMPS
_audit_creation_date              2020-12-01 
_audit_creation_method            'lammps2cif' 
_symmetry_space_group_name_H-M    'P1' 
_symmetry_Int_Tables_number       1 
_symmetry_cell_setting            triclinic 
loop_ 
_symmetry_equiv_pos_as_xyz 
  x,y,z 
_cell_length_a                    35.63699238 
_cell_length_b                    35.949592634016604 
_cell_length_c                    63.452192010697274 
_cell_angle_alpha                 92.30765825941985 
_cell_angle_beta                  90.11643282078656 
_cell_angle_gamma                 91.92709929067152 
loop_ 
_atom_site_label 
_atom_site_type_symbol 
_atom_site_fract_x 
_atom_site_fract_y 
_atom_site_fract_z 
_atom_site_charge 
C1          C  0.24838423  0.04763968  0.23868556     0.86100
C2          C  0.21262088  0.03904219  0.25144488    -0.54200
C3          C  0.21337670  0.50618493  0.26305541     0.09000
C4          C  0.25131096  0.48664304  0.26056119     0.19900
C5          C  0.27930824  0.04831141  0.25567530    -0.54900
C6          C  0.28168299  0.51677803  0.26684513     0.09100
C7          C  0.25425588  0.01233953  0.22496367    -0.54400
C8          C  0.25609518  0.48057291  0.23667352     0.09700
H9          H  0.18977825  0.05808194  0.25327873     0.14200
H10         H  0.25322364  0.46066275  0.26933903    -0.00100
H11         H  0.29828519  0.07199240  0.25905681     0.14500
H12         H  0.25508580  0.51224570  0.20865868     0.14300
C13         C  0.45715572  0.24106448  0.99039105     0.01900
C14         C  0.45845582  0.24218086  0.01265438     0.01800
C15         C  0.99501731  0.25722603  0.02365715    -0.18700
C16         C  0.02847791  0.25753371  0.01216523     0.01900
C17         C  0.02681149  0.25502066  0.98990211     0.01800
C18         C  0.99166267  0.25134771  0.97991530    -0.18700
H19         H  0.99016864  0.24867371  0.96284256     0.03900
H20         H  0.99637767  0.25947640  0.04074452     0.03900
C21         C  0.24829050  0.44528452  0.76346185     0.86100
C22         C  0.21433309  0.44966858  0.74909738    -0.54200
C23         C  0.21585603  0.48059324  0.73723520     0.09000
C24         C  0.25845171  0.00501343  0.74238070     0.19900
C25         C  0.28222531  0.44725140  0.74823546    -0.54900
C26         C  0.28433884  0.47856689  0.73675552     0.09100
C27         C  0.25160664  0.48177716  0.77662159    -0.54400
C28         C  0.26108287  0.01391200  0.76639308     0.09700
H29         H  0.19052179  0.43004544  0.74878588     0.14200
H30         H  0.26039897  0.02997045  0.73264897    -0.00100
H31         H  0.30326316  0.42649093  0.74614612     0.14500
H32         H  0.25205096  0.48251531  0.79375286     0.14300
C33         C  0.99325962  0.30290394  0.73915404     0.86100
C34         C  0.46227875  0.28763126  0.75380387    -0.54200
C35         C  0.46206116  0.25763679  0.76644672     0.09000
C36         C  0.99424005  0.24418023  0.76232874     0.19900
C37         C  0.02954380  0.29942083  0.75190206    -0.54900
C38         C  0.03017794  0.26949327  0.76454785     0.09100
C39         C  0.98865535  0.26562348  0.72664202    -0.54400
C40         C  0.99014571  0.23505527  0.73845738     0.09700
H41         H  0.43985972  0.30728237  0.75436367     0.14200
H42         H  0.99436892  0.21915645  0.77199704    -0.00100
H43         H  0.05331178  0.31869055  0.75025163     0.14500
H44         H  0.98609954  0.26319348  0.70957062     0.14300
C45         C  0.24122569  0.46247030  0.01284569     0.01900
C46         C  0.24368718  0.45980328  0.99058636     0.01800
C47         C  0.24649958  0.99292825  0.98052503    -0.18700
C48         C  0.24348131  0.02815504  0.99070987     0.01900
C49         C  0.24005684  0.03095847  0.01294274     0.01800
C50         C  0.24055634  0.99807005  0.02421695    -0.18700
H51         H  0.23881746  0.99986434  0.04128916     0.03900
H52         H  0.24820815  0.99109667  0.96345490     0.03900
O53         O  0.34393645  0.24587233  0.91577492    -0.75700
O54         O  0.29639746  0.23835168  0.93948830    -0.54600
C55         C  0.33110586  0.24308956  0.93462409     0.78000
O56         O  0.23779222  0.33923531  0.84344351    -0.60300
O57         O  0.24462223  0.29266251  0.81835462    -0.53400
C58         C  0.24125304  0.32700771  0.82419271     0.70000
O59         O  0.24446620  0.34045855  0.91469793    -0.74900
O60         O  0.24035356  0.29547665  0.93908123    -0.55400
C61         C  0.24305014  0.32973132  0.93383006     0.76000
O62         O  0.34964070  0.23960838  0.84497524    -0.60000
O63         O  0.30540043  0.23805345  0.81887169    -0.53100
C64         C  0.33969903  0.23912566  0.82547867     0.72600
Zr65       Zr  0.32077946  0.24130979  0.87951746     2.54700
O66         O  0.36525673  0.29423050  0.88007262    -0.80600
O67         O  0.37001584  0.19609840  0.88138159    -0.94000
Zr68       Zr  0.24005833  0.31392006  0.87866044     2.64700
O69         O  0.28568874  0.36589415  0.87811229    -0.99000
O70         O  0.18713061  0.35478537  0.88191449    -0.81000
O71         O  0.27977631  0.27875773  0.89967285    -0.84400
O72         O  0.28235552  0.27771671  0.85847168    -2.19100
O73         O  0.25352598  0.13316913  0.84008279    -0.67800
O74         O  0.24876957  0.17781673  0.81571306    -0.52300
C75         C  0.25311866  0.14405339  0.82094094     0.71000
O76         O  0.13628756  0.23734906  0.91109003    -0.60700
O77         O  0.18122768  0.23769530  0.93679930    -0.52700
C78         C  0.14707287  0.23885719  0.93049930     0.72800
O79         O  0.13946415  0.23517091  0.84043414    -0.72100
O80         O  0.18677105  0.23577326  0.81618668    -0.50700
C81         C  0.15188105  0.23680128  0.82145807     0.74200
O82         O  0.24820327  0.13231307  0.91140210    -0.67400
O83         O  0.23954846  0.17858797  0.93655127    -0.54600
C84         C  0.24454256  0.14442283  0.93065873     0.72600
Zr85       Zr  0.24506163  0.15793680  0.87627943     2.77500
O86         O  0.19443971  0.11075979  0.87453155    -0.98200
O87         O  0.29242521  0.11070600  0.87646343    -0.79000
Zr88       Zr  0.16414384  0.22999538  0.87611206     2.70100
O89         O  0.12783250  0.17138880  0.87519871    -0.80200
O90         O  0.10628878  0.26428020  0.87703311    -0.99300
Zr91       Zr  0.24007765  0.23683642  0.91826270     2.21500
Zr92       Zr  0.24477744  0.23517582  0.83681490     2.11100
O93         O  0.20490596  0.19285058  0.85529578    -2.48000
O94         O  0.20268075  0.19359190  0.89704963    -0.80000
O95         O  0.28473316  0.19894372  0.85742042    -0.72200
O96         O  0.20041861  0.27331143  0.89761535    -2.33200
O97         O  0.28224071  0.19951988  0.89824341    -2.29400
O98         O  0.20247808  0.27214063  0.85701343    -0.74000
H99         H  0.29790730  0.29371821  0.84996612     0.78000
H100        H  0.18449221  0.28856166  0.90644767     0.79100
H101        H  0.19056843  0.17658503  0.84559203     0.81300
H102        H  0.29777179  0.18564780  0.90731672     0.78900
H103        H  0.16798013  0.34337631  0.87210543     0.42000
H104        H  0.11079889  0.28521177  0.86757810     0.41000
H105        H  0.12571428  0.16485880  0.89017486     0.40600
H106        H  0.20716800  0.08697798  0.87615982     0.38600
H107        H  0.31407592  0.12300727  0.88403804     0.41700
H108        H  0.36661512  0.17993458  0.86846577     0.36500
H109        H  0.35602717  0.31136077  0.89137230     0.42600
H110        H  0.30339899  0.35910712  0.86669962     0.39000
H111        H  0.18055547  0.11462606  0.88790125     0.43900
H112        H  0.36241762  0.17991343  0.89300039     0.42700
H113        H  0.27165209  0.38676919  0.87261534     0.42800
H114        H  0.08741412  0.24770727  0.86957259     0.43100
O115        O  0.34512807  0.25135138  0.16272268    -0.75700
O116        O  0.29846680  0.25705670  0.18722964    -0.54600
C117        C  0.33305473  0.25325012  0.18184000     0.78000
O118        O  0.24375678  0.35885250  0.09152649    -0.60300
O119        O  0.24653274  0.31171783  0.06632569    -0.53400
C120        C  0.24433273  0.34619962  0.07227752     0.70000
O121        O  0.25401295  0.36067851  0.16268225    -0.74900
O122        O  0.24550109  0.31660681  0.18731576    -0.55400
C123        C  0.25110660  0.35034255  0.18185210     0.76000
O124        O  0.34791507  0.24773811  0.09147141    -0.60000
O125        O  0.30277340  0.25120164  0.06611552    -0.53100
C126        C  0.33693565  0.24844167  0.07212464     0.72600
Zr127      Zr  0.32091930  0.25310511  0.12680554     2.54700
O128        O  0.36909360  0.30280141  0.12793667    -0.80600
O129        O  0.36670049  0.20424479  0.12628734    -0.94000
Zr130      Zr  0.24961988  0.33440880  0.12659866     2.64700
O131        O  0.30464912  0.37616335  0.12440393    -0.99000
O132        O  0.20795436  0.38657572  0.12977660    -0.81000
O133        O  0.28475805  0.29498846  0.14748699    -0.84400
O134        O  0.28674558  0.29337407  0.10592656    -2.19100
O135        O  0.23669775  0.15075586  0.08929729    -0.67800
O136        O  0.24285887  0.19515582  0.06467626    -0.52300
C137        C  0.23965282  0.16102726  0.07009616     0.71000
O138        O  0.13445761  0.26379673  0.15854311    -0.60700
O139        O  0.17887177  0.26123476  0.18445347    -0.52700
C140        C  0.14457429  0.26300394  0.17793405     0.72800
O141        O  0.14002319  0.25748407  0.08837988    -0.72100
O142        O  0.18762209  0.25537942  0.06432153    -0.50700
C143        C  0.15279694  0.25595830  0.06940362     0.74200
O144        O  0.23629895  0.15482866  0.16079196    -0.67400
O145        O  0.23800222  0.20208290  0.18607353    -0.54600
C146        C  0.23729864  0.16751795  0.18007506     0.72600
Zr147      Zr  0.23605221  0.17866578  0.12523623     2.77500
O148        O  0.18182829  0.13561444  0.12489418    -0.98200
O149        O  0.27998759  0.12826228  0.12545326    -0.79000
Zr150      Zr  0.16458203  0.26096317  0.12436745     2.70100
O151        O  0.11047240  0.21780249  0.12401529    -0.80200
O152        O  0.12644205  0.31576660  0.12327452    -0.99300
Zr153      Zr  0.24031519  0.25868521  0.16675690     2.21500
Zr154      Zr  0.24444004  0.25422302  0.08510357     2.11100
O155        O  0.20042328  0.21781477  0.10441596    -2.48000
O156        O  0.19832608  0.22006276  0.14543647    -0.80000
O157        O  0.28005331  0.21392334  0.10558385    -0.72200
O158        O  0.20527256  0.29944556  0.14614026    -2.33200
O159        O  0.27791914  0.21665158  0.14643870    -2.29400
O160        O  0.20764150  0.29713894  0.10493120    -0.74000
H161        H  0.30352518  0.30743842  0.09706570     0.78000
H162        H  0.19082846  0.31605171  0.15501790     0.79100
H163        H  0.18430003  0.20263810  0.09505138     0.81300
H164        H  0.29193594  0.20111575  0.15542868     0.78900
H165        H  0.18519437  0.37808201  0.12174702     0.42000
H166        H  0.13439504  0.32809834  0.11026383     0.41000
H167        H  0.11803655  0.19645484  0.11482969     0.40600
H168        H  0.16724780  0.14170521  0.11226506     0.38600
H169        H  0.30415598  0.13979716  0.12099766     0.41700
H170        H  0.35661296  0.18578217  0.13615554     0.36500
H171        H  0.39280871  0.29003176  0.13037536     0.42600
H172        H  0.31404482  0.37239857  0.10982632     0.39000
H173        H  0.19225875  0.11100957  0.12123255     0.43900
H174        H  0.38913113  0.21565095  0.13353912     0.42700
H175        H  0.29432986  0.40141099  0.12473321     0.42800
H176        H  0.10076516  0.30569810  0.12009420     0.43100
O177        O  0.10627395  0.51352934  0.66111539    -0.75700
O178        O  0.06021061  0.51420243  0.68613613    -0.54600
C179        C  0.09475487  0.51271575  0.68028632     0.78000
O180        O  0.50422321  0.10739920  0.59229937    -0.60300
O181        O  0.50783877  0.06169209  0.56637047    -0.53400
C182        C  0.50622233  0.09600399  0.57275586     0.70000
O183        O  0.50032333  0.10485099  0.66411165    -0.74900
O184        O  0.50214868  0.05862758  0.68778330    -0.55400
C185        C  0.49961264  0.09284618  0.68300852     0.76000
O186        O  0.10615411  0.51612532  0.59034590    -0.60000
O187        O  0.06001353  0.51213512  0.56523537    -0.53100
C188        C  0.09846202  0.00986479  0.57130770     0.72600
Zr189      Zr  0.08002903  0.51665894  0.62579722     2.54700
O190        O  0.13019579  0.06824064  0.62599981    -0.80600
O191        O  0.13047992  0.47261061  0.62358365    -0.94000
Zr192      Zr  0.50576404  0.08112043  0.62752842     2.64700
O193        O  0.05996742  0.13822515  0.62799769    -0.99000
O194        O  0.45982409  0.12972133  0.62889309    -0.81000
O195        O  0.04807791  0.05481767  0.64776778    -0.84400
O196        O  0.04726227  0.05301171  0.60603140    -2.19100
O197        O  0.50876240  0.40024969  0.58749979    -0.67800
O198        O  0.50402355  0.44587842  0.56370011    -0.52300
C199        C  0.50667878  0.41160168  0.56853513     0.71000
O200        O  0.39989242  0.49562119  0.66038751    -0.60700
O201        O  0.44488529  0.49877572  0.68609683    -0.52700
C202        C  0.41038459  0.49608899  0.67979503     0.72800
O203        O  0.40134926  0.49977342  0.59005365    -0.72100
O204        O  0.44719059  0.00439793  0.56460692    -0.50700
C205        C  0.41285049  0.50137975  0.57090336     0.74200
O206        O  0.50493500  0.39883432  0.65869086    -0.67400
O207        O  0.50598307  0.44384984  0.68500567    -0.54600
C208        C  0.50595709  0.40953692  0.67830948     0.72600
Zr209      Zr  0.50599008  0.42524320  0.62384152     2.77500
O210        O  0.45691608  0.37642753  0.62187584    -0.98200
O211        O  0.04883725  0.38934128  0.62230220    -0.79000
Zr212      Zr  0.42714580  0.50009473  0.62553663     2.70100
O213        O  0.37889188  0.45056650  0.62254809    -0.80200
O214        O  0.38399540  0.05200535  0.62786389    -0.99300
Zr215      Zr  0.50464479  0.50228351  0.66701191     2.21500
Zr216      Zr  0.50534505  0.50363975  0.58524147     2.11100
O217        O  0.46585954  0.46208073  0.60419992    -2.48000
O218        O  0.46552711  0.46155573  0.64528654    -0.80000
O219        O  0.04156213  0.47507985  0.60451992    -0.72200
O220        O  0.46582050  0.04066924  0.64670634    -2.33200
O221        O  0.04102860  0.47599688  0.64536520    -2.29400
O222        O  0.46553934  0.04220962  0.60564190    -0.74000
H223        H  0.06278498  0.06808095  0.59700386     0.78000
H224        H  0.44982691  0.05490910  0.65601861     0.79100
H225        H  0.45051850  0.44629059  0.59471853     0.81300
H226        H  0.05627868  0.46095351  0.65398431     0.78900
H227        H  0.43715587  0.11773620  0.63501679     0.42000
H228        H  0.38327695  0.06210398  0.61358465     0.41000
H229        H  0.35657189  0.46109946  0.62952647     0.40600
H230        H  0.43877232  0.38392103  0.63292607     0.38600
H231        H  0.07284810  0.40389354  0.62161486     0.41700
H232        H  0.12267010  0.45259090  0.63307132     0.36500
H233        H  0.12004824  0.08665300  0.63632158     0.42600
H234        H  0.07583315  0.13132432  0.61576131     0.39000
H235        H  0.44361955  0.38011806  0.60844306     0.43900
H236        H  0.15206346  0.48558460  0.63087916     0.42700
H237        H  0.04809410  0.16144773  0.62400649     0.42800
H238        H  0.35897047  0.03974369  0.62962915     0.43100
O239        O  0.50655138  0.09194313  0.34366162    -0.75700
O240        O  0.50315474  0.04560503  0.31792657    -0.54600
C241        C  0.50432907  0.08005975  0.32427874     0.78000
O242        O  0.10509166  0.48880583  0.41476984    -0.60300
O243        O  0.05962502  0.49905443  0.43945017    -0.53400
C244        C  0.09389279  0.99256959  0.43217032     0.70000
O245        O  0.10517384  0.48783165  0.34344870    -0.74900
O246        O  0.05969024  0.48922710  0.31834425    -0.55400
C247        C  0.09435901  0.48717310  0.32411143     0.76000
O248        O  0.51226254  0.09356039  0.41457983    -0.60000
O249        O  0.50465604  0.04843819  0.43869842    -0.53100
C250        C  0.00787574  0.09127524  0.43377372     0.72600
Zr251      Zr  0.51023392  0.06657237  0.37860776     2.54700
O252        O  0.06260710  0.11692394  0.37723798    -0.80600
O253        O  0.47079648  0.12055064  0.38149381    -0.94000
Zr254      Zr  0.07917876  0.48904984  0.37882850     2.64700
O255        O  0.12815940  0.03943741  0.37727479    -0.99000
O256        O  0.11665558  0.43360870  0.37707994    -0.81000
O257        O  0.04258892  0.03296285  0.35737469    -0.84400
O258        O  0.04466752  0.03488461  0.39875566    -2.19100
O259        O  0.39771111  0.50040162  0.41492612    -0.67800
O260        O  0.44580238  0.99194129  0.43840686    -0.52300
C261        C  0.40978788  0.49837531  0.43400373     0.71000
O262        O  0.48646799  0.38620824  0.34032651    -0.60700
O263        O  0.49391439  0.43147569  0.31625887    -0.52700
C264        C  0.48853052  0.39744557  0.32130762     0.72800
O265        O  0.49090087  0.38617500  0.41170116    -0.72100
O266        O  0.49852059  0.43256999  0.43723047    -0.50700
C267        C  0.49428227  0.39817837  0.43104798     0.74200
O268        O  0.39528955  0.49733372  0.34374145    -0.67400
O269        O  0.44032755  0.49354447  0.31824433    -0.54600
C270        C  0.40593346  0.49673866  0.32435691     0.72600
Zr271      Zr  0.42197598  0.49440624  0.37890899     2.77500
O272        O  0.37362399  0.44501348  0.37951573    -0.98200
O273        O  0.37780830  0.04365225  0.37989940    -0.79000
Zr274      Zr  0.49187284  0.41185294  0.37658724     2.70100
O275        O  0.43756890  0.36884900  0.37570432    -0.80200
O276        O  0.03518819  0.36907797  0.37588029    -0.99300
Zr277      Zr  0.50015642  0.48904131  0.33729004     2.21500
Zr278      Zr  0.50072239  0.49044887  0.41892752     2.11100
O279        O  0.45667692  0.45277687  0.39843703    -2.48000
O280        O  0.45619549  0.45274339  0.35691351    -0.80000
O281        O  0.46674174  0.03186848  0.39887627    -0.72200
O282        O  0.03518980  0.45294542  0.35781363    -2.33200
O283        O  0.46530597  0.03072756  0.35813232    -2.29400
O284        O  0.03590577  0.45414212  0.39898750    -0.74000
H285        H  0.06172243  0.04938610  0.40791431     0.78000
H286        H  0.04843142  0.43582414  0.34860036     0.79100
H287        H  0.44000375  0.43873210  0.40736971     0.81300
H288        H  0.45092332  0.04693239  0.34973906     0.78900
H289        H  0.11216615  0.42172074  0.39069100     0.42000
H290        H  0.05336732  0.37521448  0.38742503     0.41000
H291        H  0.42298242  0.37572908  0.38844660     0.40600
H292        H  0.34969659  0.45824359  0.37987061     0.38600
H293        H  0.39149871  0.06521147  0.38686552     0.41700
H294        H  0.44988572  0.11476437  0.37146643     0.36500
H295        H  0.07802537  0.11140631  0.38965351     0.42600
H296        H  0.12641064  0.05300157  0.39110945     0.39000
H297        H  0.37431927  0.43277541  0.36526696     0.43900
H298        H  0.48567960  0.14085207  0.37504053     0.42700
H299        H  0.15148869  0.02538141  0.37819456     0.42800
H300        H  0.02075708  0.34694723  0.38061970     0.43100
C301        C  0.00746905  0.29032558  0.51246694     0.01900
C302        C  0.00591559  0.28746359  0.49014496     0.01800
C303        C  0.00575750  0.25194262  0.47999639    -0.18700
C304        C  0.00533007  0.21919261  0.49136383     0.01900
C305        C  0.00431533  0.22187515  0.51367206     0.01800
C306        C  0.00637882  0.25745485  0.52380198    -0.18700
H307        H  0.00684634  0.25964663  0.54089300     0.03900
H308        H  0.00550639  0.24971213  0.46289590     0.03900
C309        C  0.28667910  0.50163795  0.51422721     0.01900
C310        C  0.28673298  0.50013760  0.49196315     0.01800
C311        C  0.25258737  0.50071083  0.48100720    -0.18700
C312        C  0.21845385  0.50432561  0.49164173     0.01900
C313        C  0.21863060  0.50885411  0.51386024     0.01800
C314        C  0.25266647  0.50671139  0.52484935    -0.18700
H315        H  0.25265526  0.50874052  0.54195122     0.03900
H316        H  0.25260675  0.49844782  0.46390473     0.03900
C317        C  0.49295699  0.20021798  0.26581999     0.86100
C318        C  0.45707127  0.20072247  0.25245496    -0.54200
C319        C  0.45481320  0.23070815  0.24003408     0.09000
C320        C  0.98808630  0.26552460  0.24204857     0.19900
C321        C  0.02567323  0.21287874  0.25053869    -0.54900
C322        C  0.02252636  0.24130207  0.23706358     0.09100
C323        C  0.49477878  0.23767397  0.27817459    -0.54400
C324        C  0.99135505  0.27620250  0.26595920     0.09700
H325        H  0.43499727  0.17920878  0.25302047     0.14200
H326        H  0.48692264  0.28264806  0.23220564    -0.00100
H327        H  0.05069744  0.19674047  0.25067542     0.14500
H328        H  0.49713541  0.24018357  0.29525208     0.14300
C329        C  0.48576399  0.36862849  0.30413648    -0.06600
C330        C  0.01500537  0.37091129  0.29190832    -0.17700
C331        C  0.01736831  0.34013343  0.27776638     0.10600
C332        C  0.48933202  0.30548653  0.27632008    -0.06500
C333        C  0.45682075  0.31223040  0.28813931    -0.17700
C334        C  0.45480727  0.34313659  0.30216822     0.10700
S335        S  0.06092865  0.33456336  0.26386446    -0.32700
S336        S  0.41258279  0.34722457  0.31767623    -0.32700
H337        H  0.41713759  0.38509994  0.32367750     0.28700
H338        H  0.06263456  0.29599306  0.26636737     0.28700
H339        H  0.03872072  0.39053564  0.29346848     0.19300
H340        H  0.43350277  0.29205024  0.28726665     0.19300
C341        C  0.50094690  0.10851632  0.30842268    -0.06600
C342        C  0.47373551  0.13536031  0.31170732    -0.17700
C343        C  0.46880065  0.16351790  0.29741712     0.10600
C344        C  0.49342904  0.16651761  0.27993189    -0.06500
C345        C  0.01906916  0.14614327  0.27666747    -0.17700
C346        C  0.02287566  0.11735950  0.29058846     0.10700
S347        S  0.43006276  0.19435422  0.30150436    -0.32700
S348        S  0.05708420  0.08282175  0.28414621    -0.32700
H349        H  0.06729062  0.07621763  0.30504272     0.28700
H350        H  0.41702927  0.18005574  0.32056115     0.28700
H351        H  0.45576972  0.13370609  0.32540867     0.19300
H352        H  0.03543530  0.14455835  0.26242347     0.19300
C353        C  0.00921403  0.12027874  0.45094144    -0.06600
C354        C  0.97618498  0.12793736  0.46208780    -0.17700
C355        C  0.97425813  0.15927561  0.47592703     0.10600
C356        C  0.00628116  0.18316069  0.47905504    -0.06500
C357        C  0.03978726  0.17431661  0.46868347    -0.17700
C358        C  0.04169523  0.14306137  0.45488229     0.10700
S359        S  0.92973617  0.16825867  0.48817789    -0.32700
S360        S  0.08628730  0.13389798  0.44265869    -0.32700
H361        H  0.07998145  0.09528297  0.43949677     0.28700
H362        H  0.93292374  0.20722588  0.48721817     0.28700
H363        H  0.95115920  0.11054116  0.45914145     0.19300
H364        H  0.06456967  0.19228776  0.47116609     0.19300
C365        C  0.49428835  0.37009891  0.44730917    -0.06600
C366        C  0.02468087  0.37906044  0.46273009    -0.17700
C367        C  0.03006708  0.34932891  0.47589851     0.10600
C368        C  0.00239059  0.32028678  0.47675226    -0.06500
C369        C  0.46801358  0.31492812  0.46340489    -0.17700
C370        C  0.46451776  0.34360882  0.44931910     0.10700
S371        S  0.07450748  0.34837308  0.48935310    -0.32700
S372        S  0.42149223  0.34493750  0.43437790    -0.32700
H373        H  0.42168137  0.38389958  0.43302642     0.28700
H374        H  0.07759743  0.30954881  0.48696478     0.28700
H375        H  0.04636596  0.40080539  0.46194220     0.19300
H376        H  0.44509717  0.29458704  0.46481856     0.19300
C377        C  0.12213508  0.49467949  0.45076700    -0.06600
C378        C  0.13069648  0.02408289  0.46114901    -0.17700
C379        C  0.16156632  0.02660573  0.47489263     0.10600
C380        C  0.18354968  0.50173191  0.47884080    -0.06500
C381        C  0.17414365  0.46737986  0.46851863    -0.17700
C382        C  0.14355263  0.46342724  0.45469270     0.10700
S383        S  0.17251122  0.07126276  0.48767704    -0.32700
S384        S  0.13337849  0.41784309  0.44263124    -0.32700
H385        H  0.09555639  0.42322648  0.43767523     0.28700
H386        H  0.21157243  0.06889416  0.48524131     0.28700
H387        H  0.11419790  0.04845180  0.45910880     0.19300
H388        H  0.19109749  0.44350140  0.47112500     0.19300
C389        C  0.32153540  0.50020368  0.47933636    -0.06600
C390        C  0.33005226  0.02724588  0.46635755    -0.17700
C391        C  0.36082157  0.02976948  0.45290704     0.10600
C392        C  0.38203453  0.50131565  0.45096966    -0.06500
C393        C  0.37553040  0.47060711  0.46359626    -0.17700
C394        C  0.34495721  0.46932671  0.47739621     0.10700
S395        S  0.36929426  0.07303616  0.43994194    -0.32700
S396        S  0.33572965  0.42659848  0.49063954    -0.32700
H397        H  0.29643040  0.42796797  0.48933573     0.28700
H398        H  0.40803046  0.06903877  0.43689523     0.28700
H399        H  0.31188282  0.05073490  0.46824312     0.19300
H400        H  0.39280432  0.44645953  0.46162196     0.19300
C401        C  0.12344834  0.51412619  0.55470476    -0.06600
C402        C  0.15519908  0.03632269  0.55499074    -0.17700
C403        C  0.18419636  0.03582586  0.54029749     0.10600
C404        C  0.18394923  0.51377572  0.52630325    -0.06500
C405        C  0.15561649  0.48569887  0.52487124    -0.17700
C406        C  0.12534331  0.48564292  0.53881882     0.10700
S407        S  0.21883764  0.07373784  0.54240763    -0.32700
S408        S  0.09167344  0.44713379  0.53643116    -0.32700
H409        H  0.08702913  0.44331732  0.55825035     0.28700
H410        H  0.23218484  0.07081383  0.52164049     0.28700
H411        H  0.15478506  0.05871648  0.56695083     0.19300
H412        H  0.15814129  0.46248415  0.51360406     0.19300
C413        C  0.32129204  0.49860683  0.52696023    -0.06600
C414        C  0.35049180  0.02169929  0.52334167    -0.17700
C415        C  0.38069782  0.02522196  0.53759056     0.10600
C416        C  0.38347065  0.50014291  0.55457139    -0.06500
C417        C  0.35530654  0.47215347  0.55563085    -0.17700
C418        C  0.32445534  0.47088914  0.54204546     0.10700
S419        S  0.41300666  0.06458624  0.53523048    -0.32700
S420        S  0.29011811  0.43339162  0.54529332    -0.32700
H421        H  0.27362641  0.43374136  0.52521891     0.28700
H422        H  0.42023550  0.07026649  0.55693358     0.28700
H423        H  0.34747001  0.04264498  0.51170960     0.19300
H424        H  0.35718940  0.45119759  0.56738163     0.19300
C425        C  0.00519740  0.13098780  0.55604934    -0.06600
C426        C  0.47759278  0.15101040  0.55796343    -0.17700
C427        C  0.47468359  0.17855918  0.54314323     0.10600
C428        C  0.00179246  0.18862383  0.52702897    -0.06500
C429        C  0.02907331  0.16132735  0.52496245    -0.17700
C430        C  0.03080068  0.13237645  0.53908441     0.10700
S431        S  0.43579178  0.20925100  0.54621605    -0.32700
S432        S  0.06748195  0.09939842  0.53518060    -0.32700
H433        H  0.07473312  0.09495211  0.55670660     0.28700
H434        H  0.43294961  0.21790596  0.52489885     0.28700
H435        H  0.45720765  0.14972767  0.57059457     0.19300
H436        H  0.05030397  0.16344251  0.51285570     0.19300
C437        C  0.50831911  0.38240434  0.55143427    -0.06600
C438        C  0.03509238  0.36653477  0.55344182    -0.17700
C439        C  0.03782095  0.33525260  0.53981621     0.10600
C440        C  0.51002779  0.31902363  0.52338357    -0.06500
C441        C  0.48167015  0.34511601  0.52176727    -0.17700
C442        C  0.48047697  0.37664766  0.53559565     0.10700
S443        S  0.07852625  0.30731765  0.54304390    -0.32700
S444        S  0.44132501  0.40672871  0.53315538    -0.32700
H445        H  0.43684496  0.41427109  0.55489860     0.28700
H446        H  0.07801400  0.28973126  0.52290199     0.28700
H447        H  0.05683224  0.37228433  0.56522069     0.19300
H448        H  0.45905898  0.33980357  0.51049736     0.19300
C449        C  0.05101502  0.24727157  0.22002089    -0.06600
C450        C  0.06202813  0.28358224  0.21465406    -0.17700
C451        C  0.09228195  0.29019740  0.20090344     0.10600
C452        C  0.11363250  0.25991581  0.19329990    -0.06500
C453        C  0.10132189  0.22376374  0.19766965    -0.17700
C454        C  0.06954842  0.21701846  0.20992214     0.10700
S455        S  0.10129547  0.33773235  0.19377370    -0.32700
S456        S  0.05251423  0.16915688  0.21011077    -0.32700
H457        H  0.01458014  0.17810081  0.21174240     0.28700
H458        H  0.12361574  0.33048771  0.17600194     0.28700
H459        H  0.04710664  0.30706311  0.22116544     0.19300
H460        H  0.11546114  0.20031477  0.19041455     0.19300
C461        C  0.42226549  0.23582124  0.22578613    -0.06600
C462        C  0.40290144  0.26926910  0.22729853    -0.17700
C463        C  0.37241028  0.27555764  0.21391411     0.10600
C464        C  0.36148611  0.24799544  0.19835901    -0.06500
C465        C  0.38029878  0.21436771  0.19723124    -0.17700
C466        C  0.41003798  0.20770070  0.21086429     0.10700
S467        S  0.34933164  0.31930821  0.21737607    -0.32700
S468        S  0.43324522  0.16388278  0.20796077    -0.32700
H469        H  0.40480006  0.14479267  0.19601912     0.28700
H470        H  0.33631697  0.32145445  0.19657390     0.28700
H471        H  0.41161499  0.29063893  0.23900054     0.19300
H472        H  0.37193568  0.19335172  0.18525937     0.19300
C473        C  0.23658246  0.06725487  0.02509770    -0.06600
C474        C  0.26542810  0.09483777  0.02395730    -0.17700
C475        C  0.26664998  0.12648203  0.03779977     0.10600
C476        C  0.23847561  0.13082273  0.05334205    -0.06500
C477        C  0.20887409  0.10414075  0.05380758    -0.17700
C478        C  0.20726585  0.07295991  0.03982455     0.10700
S479        S  0.30606320  0.15889736  0.03559084    -0.32700
S480        S  0.16706936  0.04136731  0.04203995    -0.32700
H481        H  0.16875882  0.02474558  0.02169840     0.28700
H482        H  0.31000615  0.16713695  0.05734163     0.28700
H483        H  0.28828995  0.09077156  0.01296793     0.19300
H484        H  0.18674014  0.10752693  0.06535675     0.19300
C485        C  0.24204465  0.37355316  0.05583138    -0.06600
C486        C  0.27477241  0.38315506  0.04486730    -0.17700
C487        C  0.27517187  0.41118115  0.03024339     0.10600
C488        C  0.24186243  0.42982147  0.02623735    -0.06500
C489        C  0.20902201  0.42021788  0.03725049    -0.17700
C490        C  0.20875509  0.39238746  0.05203210     0.10700
S491        S  0.31952518  0.42339828  0.01836380    -0.32700
S492        S  0.16566910  0.38358809  0.06619382    -0.32700
H493        H  0.17230705  0.34653466  0.07092087     0.28700
H494        H  0.31392086  0.46193185  0.01865471     0.28700
H495        H  0.30075631  0.37034473  0.04865294     0.19300
H496        H  0.18361202  0.43514973  0.03461506     0.19300
C497        C  0.24388029  0.06086951  0.97722221    -0.06600
C498        C  0.27761795  0.07092940  0.96721700    -0.17700
C499        C  0.27903036  0.09873783  0.95236102     0.10600
C500        C  0.24583954  0.11690315  0.94724225    -0.06500
C501        C  0.21231759  0.10718180  0.95745338    -0.17700
C502        C  0.21086154  0.07925455  0.97218861     0.10700
S503        S  0.32382833  0.10894160  0.94030365    -0.32700
S504        S  0.16567668  0.06701823  0.98302615    -0.32700
H505        H  0.17117468  0.02845715  0.98260106     0.28700
H506        H  0.31643200  0.14533423  0.93473846     0.28700
H507        H  0.30295206  0.05650285  0.97078573     0.19300
H508        H  0.18663385  0.12008735  0.95310008     0.19300
C509        C  0.24742811  0.42366906  0.97840892    -0.06600
C510        C  0.21959542  0.39535424  0.98042952    -0.17700
C511        C  0.21822848  0.36350907  0.96681935     0.10600
C512        C  0.24521873  0.35970478  0.95061679    -0.06500
C513        C  0.27391841  0.38717993  0.94921132    -0.17700
C514        C  0.27571498  0.41861647  0.96297132     0.10700
S515        S  0.17986245  0.33026535  0.97008370    -0.32700
S516        S  0.31470788  0.45125876  0.95953927    -0.32700
H517        H  0.31418633  0.46818983  0.97983916     0.28700
H518        H  0.17354009  0.32287671  0.94841908     0.28700
H519        H  0.19745990  0.39899758  0.99192649     0.19300
H520        H  0.29507524  0.38427864  0.93705132     0.19300
C521        C  0.49381952  0.12081345  0.70017580    -0.06600
C522        C  0.46284126  0.14345728  0.69850292    -0.17700
C523        C  0.45782825  0.17373762  0.71251687     0.10600
C524        C  0.48520367  0.18253913  0.72831469    -0.06500
C525        C  0.03036447  0.19280302  0.71827968    -0.17700
C526        C  0.03566067  0.16331533  0.70365324     0.10700
S527        S  0.41667573  0.20072111  0.70857408    -0.32700
S528        S  0.08068809  0.16181548  0.69067702    -0.32700
H529        H  0.07698123  0.12589205  0.68130542     0.28700
H530        H  0.41816742  0.22115175  0.72782693     0.28700
H531        H  0.44277808  0.13799883  0.68578633     0.19300
H532        H  0.05320204  0.21301982  0.72133654     0.19300
C533        C  0.50656683  0.37999474  0.69414894    -0.06600
C534        C  0.49256211  0.38720013  0.71456219    -0.17700
C535        C  0.48986016  0.35915642  0.72944818     0.10600
C536        C  0.49844776  0.32192219  0.72326513    -0.06500
C537        C  0.01762051  0.33192638  0.70620164    -0.17700
C538        C  0.02090643  0.35957565  0.69138339     0.10700
S539        S  0.47884750  0.37269315  0.75643038    -0.32700
S540        S  0.05146208  0.35212485  0.66896854    -0.32700
H541        H  0.05974304  0.31489529  0.67249317     0.28700
H542        H  0.47829196  0.41135368  0.75386858     0.28700
H543        H  0.48377498  0.41499220  0.71890147     0.19300
H544        H  0.03269446  0.30659820  0.70343525     0.19300
C545        C  0.06289319  0.26154162  0.77852116    -0.06600
C546        C  0.07198653  0.22419246  0.78135732    -0.17700
C547        C  0.10122463  0.21475917  0.79487938     0.10600
C548        C  0.12370869  0.24334406  0.80499305    -0.06500
C549        C  0.11561908  0.28046583  0.80170149    -0.17700
C550        C  0.08510376  0.28996203  0.78932808     0.10700
S551        S  0.10679574  0.16584168  0.79903281    -0.32700
S552        S  0.07487708  0.33880556  0.79005238    -0.32700
H553        H  0.03583002  0.33310216  0.79010971     0.28700
H554        H  0.13877354  0.16872780  0.81198523     0.28700
H555        H  0.05590482  0.20190471  0.77320978     0.19300
H556        H  0.13194126  0.30246724  0.81002544     0.19300
C557        C  0.43198557  0.25060329  0.78210465    -0.06600
C558        C  0.40131470  0.22652113  0.77661171    -0.17700
C559        C  0.37088368  0.22158344  0.79039853     0.10600
C560        C  0.37075302  0.24165684  0.81003086    -0.06500
C561        C  0.40202005  0.26485897  0.81562395    -0.17700
C562        C  0.43256805  0.26902069  0.80210458     0.10700
S563        S  0.33401599  0.18839516  0.78240183    -0.32700
S564        S  0.47190540  0.29762801  0.81144348    -0.32700
H565        H  0.49840361  0.27184000  0.80447882     0.28700
H566        H  0.32859693  0.17452807  0.80263100     0.28700
H567        H  0.40109249  0.21123019  0.76159777     0.19300
H568        H  0.40276131  0.27999485  0.83075377     0.19300
C569        C  0.31549573  0.48493561  0.72158113    -0.06600
C570        C  0.34715325  0.01310201  0.72604073    -0.17700
C571        C  0.37810242  0.01749589  0.71261229     0.10600
C572        C  0.37957888  0.49221008  0.69537937    -0.06500
C573        C  0.35091508  0.46542882  0.69058002    -0.17700
C574        C  0.31913360  0.46179994  0.70326211     0.10700
S575        S  0.41023984  0.05652895  0.71803316    -0.32700
S576        S  0.28356027  0.42767327  0.69496220    -0.32700
H577        H  0.25414926  0.45141448  0.70001794     0.28700
H578        H  0.41667813  0.06427833  0.69677622     0.28700
H579        H  0.34384390  0.03254540  0.73935315     0.19300
H580        H  0.35302110  0.44739027  0.67654877     0.19300
C581        C  0.12355511  0.50560340  0.69617211    -0.06600
C582        C  0.13658642  0.46938302  0.69635531    -0.17700
C583        C  0.16711271  0.46051013  0.70893573     0.10600
C584        C  0.18500831  0.48870818  0.72216723    -0.06500
C585        C  0.18234577  0.02518563  0.72026009    -0.15700
C586        C  0.15262153  0.03409614  0.70699803     0.10700
S587        S  0.18381854  0.41352578  0.70656116    -0.32700
S588        S  0.14420185  0.08255883  0.70356616    -0.32700
H589        H  0.10515468  0.07758111  0.70108038     0.28700
H590        H  0.16062635  0.40058829  0.68966217     0.28700
H591        H  0.12312251  0.44807404  0.68610144     0.19300
H592        H  0.19819917  0.04768811  0.72824622     0.19300
C593        C  0.25889218  0.11515217  0.80406163    -0.06600
C594        C  0.28758102  0.09011380  0.80691989    -0.17700
C595        C  0.29166694  0.05912025  0.79325988     0.10600
C596        C  0.26532231  0.05162749  0.77677840    -0.06500
C597        C  0.23847035  0.07816573  0.77285523    -0.17700
C598        C  0.23532755  0.11022965  0.78613936     0.10700
S599        S  0.33062724  0.02976083  0.79812451    -0.32700
S600        S  0.19932452  0.14282382  0.78099947    -0.32700
H601        H  0.18447157  0.12430930  0.76272186     0.28700
H602        H  0.33320923  0.01498941  0.77735207     0.28700
H603        H  0.30674711  0.09448644  0.82014757     0.19300
H604        H  0.21838496  0.07257270  0.76027751     0.19300
C605        C  0.24430211  0.41180698  0.77783287    -0.06600
C606        C  0.27202006  0.38464600  0.77818638    -0.17700
C607        C  0.27095957  0.35639748  0.79268597     0.10600
C608        C  0.24183121  0.35462140  0.80758645    -0.06500
C609        C  0.21356669  0.38065074  0.80717958    -0.17700
C610        C  0.21401808  0.40875125  0.79242187     0.10700
S611        S  0.30971533  0.32547535  0.79283304    -0.32700
S612        S  0.17615189  0.44115698  0.79328811    -0.32700
H613        H  0.15175494  0.42042209  0.80608791     0.28700
H614        H  0.28724397  0.29408753  0.78647007     0.28700
H615        H  0.29565983  0.38512291  0.76771956     0.19300
H616        H  0.19120468  0.37910940  0.81867699     0.19300
C617        C  0.12497113  0.25393461  0.05231887    -0.06600
C618        C  0.12103618  0.28474005  0.03971624    -0.17700
C619        C  0.09043497  0.28658351  0.02592987     0.10600
C620        C  0.06385955  0.25652102  0.02436507    -0.06500
C621        C  0.06931779  0.22484999  0.03610227    -0.17700
C622        C  0.09969213  0.22311978  0.04985829     0.10700
S623        S  0.08574539  0.32872418  0.01187932    -0.32700
S624        S  0.10475369  0.18099404  0.06396028    -0.32700
H625        H  0.14424860  0.18269024  0.06414881     0.28700
H626        H  0.04637886  0.32892958  0.01304442     0.28700
H627        H  0.14068998  0.30830856  0.04147440     0.19300
H628        H  0.04936095  0.20144000  0.03471423     0.19300
C629        C  0.42451415  0.23971968  0.02606187    -0.06600
C630        C  0.39658844  0.26580774  0.02378335    -0.17700
C631        C  0.36733363  0.26881078  0.03826872     0.10600
C632        C  0.36594344  0.24555285  0.05570052    -0.06500
C633        C  0.39324718  0.21880396  0.05769755    -0.17700
C634        C  0.42202355  0.21514565  0.04296261     0.10700
S635        S  0.33465797  0.30496336  0.03449275    -0.32700
S636        S  0.45480601  0.17881338  0.04693503    -0.32700
H637        H  0.46455767  0.17349161  0.02561536     0.28700
H638        H  0.33288379  0.31558097  0.05604023     0.28700
H639        H  0.39871362  0.28557717  0.01138135     0.19300
H640        H  0.39197495  0.20035147  0.07079638     0.19300
C641        C  0.11800644  0.24356792  0.94663067    -0.06600
C642        C  0.09224479  0.27162887  0.94414608    -0.17700
C643        C  0.06415516  0.27795659  0.95898509     0.10600
C644        C  0.06059238  0.25463263  0.97638066    -0.06500
C645        C  0.08696644  0.22708477  0.97908477    -0.17700
C646        C  0.11579728  0.22158752  0.96454313     0.10700
S647        S  0.03376044  0.31616142  0.95463782    -0.32700
S648        S  0.14723689  0.18452977  0.96902922    -0.32700
H649        H  0.15038679  0.17349421  0.94760566     0.28700
H650        H  0.52065738  0.31489570  0.97518347     0.28700
H651        H  0.09442467  0.28920969  0.93068201     0.19300
H652        H  0.08400958  0.20837385  0.99197141     0.19300
C653        C  0.42174024  0.24175298  0.97826165    -0.06600
C654        C  0.41484796  0.27424331  0.96753101    -0.17700
C655        C  0.38347991  0.27643221  0.95453703     0.10600
C656        C  0.35884334  0.24518739  0.95173154    -0.06500
C657        C  0.36426557  0.21348598  0.96340630    -0.17700
C658        C  0.39577973  0.21120945  0.97644951     0.10700
S659        S  0.37628816  0.31972600  0.94189845    -0.32700
S660        S  0.40237239  0.16796532  0.98915567    -0.32700
H661        H  0.44176960  0.16941165  0.98805114     0.28700
H662        H  0.33693678  0.31559428  0.94051157     0.28700
H663        H  0.43429230  0.29803468  0.96921943     0.19300
H664        H  0.34518064  0.18952921  0.96133202     0.19300
C665        C  0.31286524  0.51113646  0.28183920    -0.06600
C666        C  0.34072719  0.48593217  0.27608676    -0.17700
C667        C  0.37195406  0.48091655  0.28916956     0.10600
C668        C  0.37559449  0.50165485  0.30857908    -0.06500
C669        C  0.35065524  0.03115969  0.31198058    -0.17700
C670        C  0.31926997  0.03590010  0.29912903     0.10700
S671        S  0.40529435  0.44712248  0.28032250    -0.32700
S672        S  0.28980047  0.07446120  0.30580221    -0.32700
H673        H  0.25600418  0.05640054  0.29903863     0.28700
H674        H  0.41267862  0.43419488  0.30041931     0.28700
H675        H  0.33817758  0.47010195  0.26121905     0.19300
H676        H  0.35612668  0.05081903  0.32512266     0.19300
C677        C  0.12434300  0.48522381  0.30754775    -0.06600
C678        C  0.11559278  0.49429927  0.28679396    -0.17700
C679        C  0.14349386  0.49767373  0.27136891     0.10600
C680        C  0.18174430  0.49383736  0.27685294    -0.06500
C681        C  0.18900297  0.98361847  0.29598361    -0.17700
C682        C  0.16064234  0.97834167  0.31102643     0.10700
S683        S  0.12813404  0.50597337  0.24489778    -0.32700
S684        S  0.17405501  0.95948804  0.33586485    -0.32700
H685        H  0.21102166  0.95061968  0.33038515     0.28700
H686        H  0.15813973  0.48805278  0.23485895     0.28700
H687        H  0.08681889  0.49933383  0.28250995     0.19300
H688        H  0.21799057  0.97978134  0.30025861     0.19300
C689        C  0.24650491  0.08177673  0.22492415    -0.06600
C690        C  0.21107585  0.09112895  0.21694106    -0.17700
C691        C  0.20692526  0.11966922  0.20291680     0.10600
C692        C  0.23892589  0.13999799  0.19640592    -0.06500
C693        C  0.27433384  0.13088232  0.20375059    -0.17700
C694        C  0.27879287  0.10112553  0.21699299     0.10700
S695        S  0.15984952  0.12751265  0.19372416    -0.32700
S696        S  0.32666943  0.08811409  0.22098971    -0.32700
H697        H  0.31908449  0.04979330  0.21819544     0.28700
H698        H  0.16779881  0.15486588  0.17909439     0.28700
H699        H  0.18603254  0.07495929  0.22064999     0.19300
H700        H  0.29906250  0.14557470  0.19793645     0.19300
C701        C  0.25965321  0.44376802  0.22573099    -0.06600
C702        C  0.23164863  0.41616713  0.22866234    -0.17700
C703        C  0.22894174  0.38430066  0.21521976     0.10600
C704        C  0.25491983  0.37998221  0.19852728    -0.06500
C705        C  0.28471902  0.40611231  0.19684263    -0.17700
C706        C  0.28772936  0.43759001  0.21047846     0.10700
S707        S  0.19030589  0.35185845  0.21934991    -0.32700
S708        S  0.32763088  0.46949158  0.20836591    -0.32700
H709        H  0.34518952  0.95313913  0.18939333     0.28700
H710        H  0.18304626  0.34424079  0.19782552     0.28700
H711        H  0.21030239  0.42062156  0.24056327     0.19300
H712        H  0.30532220  0.40211966  0.18449975     0.19300
C713        C  0.24760781  0.54761111  0.23945914     0.86100
C714        C  0.21230822  0.53852978  0.25254294    -0.54200
C715        C  0.21283875  0.00666267  0.26193042     0.09000
C716        C  0.25050754  0.98644805  0.25968841     0.19900
C717        C  0.27902162  0.54890209  0.25619932    -0.54900
C718        C  0.28100259  0.01619789  0.26646173     0.09100
C719        C  0.25365666  0.51226104  0.22576718    -0.54400
C720        C  0.25619176  0.98043506  0.23575845     0.09700
H721        H  0.18914882  0.55711815  0.25455860     0.14200
H722        H  0.25167079  0.96042868  0.26848663    -0.00100
H723        H  0.29772771  0.57286865  0.25944125     0.14500
H724        H  0.25621562  0.01262755  0.20788288     0.14300
C725        C  0.45760856  0.74232151  0.99117579     0.01900
C726        C  0.45957555  0.74308149  0.01340618     0.01800
C727        C  0.99333650  0.74694909  0.02343723    -0.18700
C728        C  0.02683335  0.74996873  0.01210774     0.01900
C729        C  0.02562271  0.74888743  0.98987362     0.01800
C730        C  0.99082188  0.74475519  0.97962826    -0.18700
H731        H  0.98975524  0.74346840  0.96252610     0.03900
H732        H  0.99448828  0.74814533  0.04053665     0.03900
C733        C  0.25533935  0.94612597  0.76544696     0.86100
C734        C  0.22082979  0.95014007  0.75135063    -0.54200
C735        C  0.22214020  0.98031653  0.73885767     0.09000
C736        C  0.25210885  0.50535486  0.74124098     0.19900
C737        C  0.28881278  0.94738124  0.75001856    -0.54900
C738        C  0.29039341  0.97803854  0.73809494     0.09100
C739        C  0.25930945  0.98304270  0.77814842    -0.54400
C740        C  0.25427221  0.51328063  0.76540108     0.09700
H741        H  0.19681389  0.93091588  0.75188714     0.14200
H742        H  0.25391695  0.53074189  0.73184040    -0.00100
H743        H  0.31014654  0.92688218  0.74816936     0.14500
H744        H  0.26049831  0.98461472  0.79527572     0.14300
C745        C  0.99695402  0.80371303  0.73985440     0.86100
C746        C  0.46279556  0.78846346  0.75325669    -0.54200
C747        C  0.46243421  0.75892878  0.76622310     0.09000
C748        C  0.99596198  0.74418415  0.76237473     0.19900
C749        C  0.03266950  0.79915874  0.75274703    -0.54900
C750        C  0.03222498  0.76908587  0.76522676     0.09100
C751        C  0.99203472  0.76691163  0.72687090    -0.54400
C752        C  0.99238475  0.73582571  0.73832911     0.09700
H753        H  0.44075199  0.80856816  0.75364969     0.14200
H754        H  0.99519846  0.71888330  0.77183291    -0.00100
H755        H  0.05683176  0.81805457  0.75144196     0.14500
H756        H  0.98971604  0.76518423  0.70978133     0.14300
C757        C  0.24360738  0.96287396  0.01400112     0.01900
C758        C  0.24721420  0.96008607  0.99179379     0.01800
C759        C  0.24142326  0.49256063  0.97937077    -0.18700
C760        C  0.23803766  0.52755249  0.98972261     0.01900
C761        C  0.23609288  0.53022065  0.01197068     0.01800
C762        C  0.23803562  0.49747652  0.02315879    -0.18700
H763        H  0.23725457  0.49922645  0.04025856     0.03900
H764        H  0.24238092  0.49088334  0.96227584     0.03900
O765        O  0.34528626  0.74611679  0.91606280    -0.75700
O766        O  0.29777630  0.73861433  0.93981529    -0.54600
C767        C  0.33244800  0.74358623  0.93493000     0.78000
O768        O  0.24253806  0.83922420  0.84433759    -0.60300
O769        O  0.24846054  0.79279421  0.81899642    -0.53400
C770        C  0.24611893  0.82714320  0.82510835     0.70000
O771        O  0.24631081  0.84151441  0.91532887    -0.74900
O772        O  0.24266908  0.79635219  0.93961185    -0.55400
C773        C  0.24525752  0.83065985  0.93442241     0.76000
O774        O  0.35069503  0.74238510  0.84514046    -0.60000
O775        O  0.30637137  0.73674057  0.81909399    -0.53100
C776        C  0.34065157  0.74015930  0.82563414     0.72600
Zr777      Zr  0.32207728  0.74047620  0.87983888     2.54700
O778        O  0.36945490  0.79091773  0.88099880    -0.80600
O779        O  0.36952723  0.69333168  0.88048642    -0.94000
Zr780      Zr  0.24279280  0.81441967  0.87945356     2.64700
O781        O  0.29108443  0.86405398  0.88011075    -0.99000
O782        O  0.19220928  0.85827722  0.88127800    -0.81000
O783        O  0.28183719  0.77848299  0.90024433    -0.84400
O784        O  0.28406978  0.77743920  0.85903703    -2.19100
O785        O  0.25206348  0.63235913  0.84064542    -0.67800
O786        O  0.24855410  0.67721470  0.81635694    -0.52300
C787        C  0.25183307  0.64319124  0.82148834     0.71000
O788        O  0.13701118  0.73653797  0.91189624    -0.60700
O789        O  0.18218399  0.73852278  0.93754223    -0.52700
C790        C  0.14787040  0.73845622  0.93129379     0.72800
O791        O  0.14037153  0.73582628  0.84133877    -0.72100
O792        O  0.18782791  0.73653681  0.81712911    -0.50700
C793        C  0.15295478  0.73729518  0.82242761     0.74200
O794        O  0.24247662  0.63250098  0.91152432    -0.67400
O795        O  0.23927990  0.67924458  0.93696590    -0.54600
C796        C  0.24061595  0.64477075  0.93081555     0.72600
Zr797      Zr  0.24459146  0.65855082  0.87664646     2.77500
O798        O  0.19400182  0.61143438  0.87345690    -0.98200
O799        O  0.29365328  0.61329190  0.87856105    -0.79000
Zr800      Zr  0.16517799  0.73275519  0.87687841     2.70100
O801        O  0.12078151  0.67969353  0.87511229    -0.80200
O802        O  0.11551140  0.77772877  0.87771036    -0.99300
Zr803      Zr  0.24119279  0.73751618  0.91886306     2.21500
Zr804      Zr  0.24607582  0.73523745  0.83734240     2.11100
O805        O  0.20507604  0.69445398  0.85603077    -2.48000
O806        O  0.20312516  0.69524241  0.89744903    -0.80000
O807        O  0.28545863  0.69841583  0.85779602    -0.72200
O808        O  0.20214757  0.77495000  0.89855224    -2.33200
O809        O  0.28257184  0.69941023  0.89866351    -2.29400
O810        O  0.20475947  0.77336850  0.85760228    -0.74000
H811        H  0.29987023  0.79334506  0.85059127     0.78000
H812        H  0.18639593  0.79019899  0.90747585     0.79100
H813        H  0.19038853  0.67842194  0.84637750     0.81300
H814        H  0.29769387  0.68506322  0.90771843     0.78900
H815        H  0.16910366  0.84276132  0.87859031     0.42000
H816        H  0.12136210  0.79435834  0.86600652     0.41000
H817        H  0.12314804  0.66886925  0.86059725     0.40600
H818        H  0.20553961  0.58817853  0.87767235     0.38600
H819        H  0.31287688  0.62166998  0.86838446     0.41700
H820        H  0.36920705  0.68168796  0.86607406     0.36500
H821        H  0.35671208  0.81224950  0.88784578     0.42600
H822        H  0.30271566  0.86281171  0.86595511     0.39000
H823        H  0.17668651  0.61784129  0.88513799     0.43900
H824        H  0.35871202  0.67379241  0.88944103     0.42700
H825        H  0.27696877  0.88732807  0.88045215     0.42800
H826        H  0.09267805  0.76326156  0.87299663     0.43100
O827        O  0.34360118  0.74556260  0.16214236    -0.75700
O828        O  0.29722515  0.75356471  0.18663305    -0.54600
C829        C  0.33162311  0.74846420  0.18124334     0.78000
O830        O  0.24573864  0.85665984  0.09118536    -0.60300
O831        O  0.24665550  0.80958644  0.06587938    -0.53400
C832        C  0.24550476  0.84412151  0.07194095     0.70000
O833        O  0.25706075  0.85950371  0.16153049    -0.74900
O834        O  0.24696722  0.81578597  0.18614663    -0.55400
C835        C  0.25367752  0.84946699  0.18071251     0.76000
O836        O  0.34669547  0.74379314  0.09098228    -0.60000
O837        O  0.30203912  0.74860160  0.06548816    -0.53100
C838        C  0.33608382  0.74553362  0.07163361     0.72600
Zr839      Zr  0.31941308  0.74724274  0.12625848     2.54700
O840        O  0.37321649  0.79081757  0.12782238    -0.80600
O841        O  0.35915882  0.69336347  0.12559687    -0.94000
Zr842      Zr  0.25134099  0.83165441  0.12595405     2.64700
O843        O  0.30843063  0.87012071  0.12270715    -0.99000
O844        O  0.21224778  0.88577862  0.12920633    -0.81000
O845        O  0.28509111  0.79105370  0.14679862    -0.84400
O846        O  0.28718616  0.78929183  0.10549257    -2.19100
O847        O  0.23452020  0.64856421  0.08901432    -0.67800
O848        O  0.24123258  0.69277712  0.06430511    -0.52300
C849        C  0.23776152  0.65875800  0.06982347     0.71000
O850        O  0.13353929  0.76262760  0.15770384    -0.60700
O851        O  0.17775116  0.76060217  0.18379930    -0.52700
C852        C  0.14349894  0.76206536  0.17713836     0.72800
O853        O  0.13962325  0.75683296  0.08737770    -0.72100
O854        O  0.18730588  0.75333575  0.06341153    -0.50700
C855        C  0.15248031  0.75447260  0.06843071     0.74200
O856        O  0.23212694  0.65257787  0.16044870    -0.67400
O857        O  0.23667300  0.70018924  0.18548860    -0.54600
C858        C  0.23468942  0.66552785  0.17965967     0.72600
Zr859      Zr  0.23154588  0.67643296  0.12482691     2.77500
O860        O  0.17255000  0.64021046  0.12269930    -0.98200
O861        O  0.26748686  0.62012288  0.12569375    -0.79000
Zr862      Zr  0.16371763  0.76092212  0.12351849     2.70100
O863        O  0.10931015  0.71811241  0.12179985    -0.80200
O864        O  0.12687286  0.81666604  0.12254168    -0.99300
Zr865      Zr  0.23922650  0.75688172  0.16619289     2.21500
Zr866      Zr  0.24372159  0.75182332  0.08450951     2.11100
O867        O  0.19829146  0.71677298  0.10366151    -2.48000
O868        O  0.19578857  0.71945769  0.14503496    -0.80000
O869        O  0.27717291  0.70970237  0.10505442    -0.72200
O870        O  0.20550700  0.79831923  0.14535226    -2.33200
O871        O  0.27483834  0.71299444  0.14591548    -2.29400
O872        O  0.20814540  0.79584676  0.10425302    -0.74000
H873        H  0.30451898  0.80305467  0.09678979     0.78000
H874        H  0.19153624  0.81543868  0.15417912     0.79100
H875        H  0.18188917  0.70192285  0.09430742     0.81300
H876        H  0.28830758  0.69704694  0.15491864     0.78900
H877        H  0.18894776  0.87814641  0.12142817     0.42000
H878        H  0.12522654  0.82222969  0.10741713     0.41000
H879        H  0.11768077  0.69567247  0.12877990     0.40600
H880        H  0.17927579  0.61592525  0.11608902     0.38600
H881        H  0.29341217  0.62839242  0.12215339     0.41700
H882        H  0.35018119  0.67833299  0.13743110     0.36500
H883        H  0.39533029  0.77485508  0.12728834     0.42600
H884        H  0.30260554  0.89415835  0.12992649     0.39000
H885        H  0.16643645  0.63466039  0.13748117     0.43900
H886        H  0.38418861  0.70339818  0.13020811     0.42700
H887        H  0.32675870  0.85889870  0.13210265     0.42800
H888        H  0.10112822  0.80820000  0.12632833     0.43100
O889        O  0.11345938  0.01377802  0.66140978    -0.75700
O890        O  0.06741679  0.01316567  0.68650284    -0.54600
C891        C  0.10203928  0.01220165  0.68060026     0.78000
O892        O  0.50043927  0.60737851  0.59321468    -0.60300
O893        O  0.50509064  0.56196359  0.56723066    -0.53400
C894        C  0.50219812  0.59614335  0.57368234     0.70000
O895        O  0.50019534  0.60530623  0.66449438    -0.74900
O896        O  0.50372629  0.55949802  0.68833716    -0.55400
C897        C  0.50081126  0.59358994  0.68342216     0.76000
O898        O  0.11066751  0.01246628  0.59045566    -0.60000
O899        O  0.06376747  0.00889436  0.56576715    -0.53100
C900        C  0.09453671  0.51399659  0.57110145     0.72600
Zr901      Zr  0.08564066  0.01542073  0.62624437     2.54700
O902        O  0.12456811  0.56946775  0.62823901    -0.80600
O903        O  0.13475019  0.96984046  0.62452448    -0.94000
Zr904      Zr  0.50553416  0.58103035  0.62812836     2.64700
O905        O  0.05169474  0.64042701  0.62759573    -0.99000
O906        O  0.46428392  0.63363652  0.62933259    -0.81000
O907        O  0.04148114  0.55533886  0.64699504    -0.84400
O908        O  0.04185059  0.55444292  0.60556831    -2.19100
O909        O  0.50717522  0.90006866  0.58678516    -0.67800
O910        O  0.50343377  0.94601980  0.56312932    -0.52300
C911        C  0.50544375  0.91168137  0.56790293     0.71000
O912        O  0.40106845  0.99537948  0.66011195    -0.60700
O913        O  0.44669710  0.99859130  0.68552563    -0.52700
C914        C  0.41222857  0.99587366  0.67942298     0.72800
O915        O  0.40105904  0.00011489  0.58937030    -0.72100
O916        O  0.44742503  0.50326085  0.56520838    -0.50700
C917        C  0.41260128  0.00198336  0.57021925     0.74200
O918        O  0.50212539  0.89882605  0.65760210    -0.67400
O919        O  0.50537350  0.94328000  0.68408605    -0.54600
C920        C  0.50384109  0.90903878  0.67723626     0.72600
Zr921      Zr  0.50553170  0.92529068  0.62296164     2.77500
O922        O  0.45904898  0.87402567  0.62101572    -0.98200
O923        O  0.05615568  0.89173463  0.62561112    -0.79000
Zr924      Zr  0.42703683  0.00086764  0.62492475     2.70100
O925        O  0.37608617  0.95409744  0.62217213    -0.80200
O926        O  0.38171076  0.54914466  0.62769140    -0.99300
Zr927      Zr  0.50532954  0.00188965  0.66613933     2.21500
Zr928      Zr  0.50509306  0.00370046  0.58461766     2.11100
O929        O  0.46529442  0.96239358  0.60353655    -2.48000
O930        O  0.46540731  0.96183660  0.64442380    -0.80000
O931        O  0.04600546  0.97406731  0.60546109    -0.72200
O932        O  0.46519971  0.54080707  0.64733041    -2.33200
O933        O  0.04638581  0.97590199  0.64639767    -2.29400
O934        O  0.46553790  0.54168656  0.60637835    -0.74000
H935        H  0.05740965  0.56992041  0.59679725     0.78000
H936        H  0.44912953  0.55514229  0.65653782     0.79100
H937        H  0.44981469  0.94672019  0.59405299     0.81300
H938        H  0.06163754  0.96086683  0.65501873     0.78900
H939        H  0.43913595  0.62250702  0.63224969     0.42000
H940        H  0.38738086  0.56452920  0.61542140     0.41000
H941        H  0.38729748  0.93234988  0.61482910     0.40600
H942        H  0.44106473  0.88085313  0.61002086     0.38600
H943        H  0.07613142  0.90324239  0.61694362     0.41700
H944        H  0.13014967  0.95401912  0.63673760     0.36500
H945        H  0.14853122  0.55928672  0.62314112     0.42600
H946        H  0.06878420  0.63336694  0.63898026     0.39000
H947        H  0.47250715  0.85277679  0.61458177     0.43900
H948        H  0.15816666  0.98432939  0.62813245     0.42700
H949        H  0.06612018  0.63594835  0.61447484     0.42800
H950        H  0.35735725  0.53632068  0.62415154     0.43100
O951        O  0.50513426  0.59312575  0.34484801    -0.75700
O952        O  0.50368263  0.54679029  0.31906845    -0.54600
C953        C  0.50406941  0.58118557  0.32545609     0.78000
O954        O  0.10493968  0.98910147  0.41286928    -0.60300
O955        O  0.05986285  0.99740486  0.43799219    -0.53400
C956        C  0.09370887  0.49389942  0.43393352     0.70000
O957        O  0.10342912  0.98945325  0.34204648    -0.74900
O958        O  0.05777979  0.99095640  0.31703290    -0.55400
C959        C  0.09257017  0.98895887  0.32274472     0.76000
O960        O  0.50879772  0.59442232  0.41568545    -0.60000
O961        O  0.50291116  0.54881879  0.43964870    -0.53100
C962        C  0.00916540  0.59217912  0.43384839     0.72600
Zr963      Zr  0.50766864  0.56749588  0.37973755     2.54700
O964        O  0.07073380  0.61099935  0.38027926    -0.80600
O965        O  0.46276791  0.61712897  0.38183823    -0.94000
Zr966      Zr  0.07786773  0.99186501  0.37740630     2.64700
O967        O  0.13482643  0.53027909  0.37935852    -0.99000
O968        O  0.12148002  0.94121656  0.37684114    -0.81000
O969        O  0.04606613  0.53138855  0.35832199    -0.84400
O970        O  0.04670640  0.53371704  0.39948327    -2.19100
O971        O  0.39948179  0.00018518  0.41425499    -0.67800
O972        O  0.44396305  0.49357764  0.43932741    -0.52300
C973        C  0.41165998  0.99717067  0.43318766     0.71000
O974        O  0.48346759  0.88488262  0.34024216    -0.60700
O975        O  0.49264297  0.92968767  0.31602336    -0.52700
C976        C  0.48604850  0.89586227  0.32118298     0.72800
O977        O  0.49142537  0.88577773  0.41153027    -0.72100
O978        O  0.50044769  0.93234116  0.43684245    -0.50700
C979        C  0.49536266  0.89792156  0.43084261     0.74200
O980        O  0.39481519  0.99806833  0.34363014    -0.67400
O981        O  0.43920262  0.99228175  0.31792434    -0.54600
C982        C  0.40503503  0.99640973  0.32419267     0.72600
Zr983      Zr  0.42318126  0.99451042  0.37835959     2.77500
O984        O  0.37325103  0.94653584  0.37805569    -0.98200
O985        O  0.37616130  0.54316772  0.37891140    -0.79000
Zr986      Zr  0.49244448  0.91100779  0.37619636     2.70100
O987        O  0.44076596  0.86503934  0.37679355    -0.80200
O988        O  0.03647957  0.86890610  0.37443864    -0.99300
Zr989      Zr  0.49963035  0.98794567  0.33643047     2.21500
Zr990      Zr  0.50271381  0.98991753  0.41808437     2.11100
O991        O  0.45788448  0.95265121  0.39787138    -2.48000
O992        O  0.45635274  0.95185787  0.35655357    -0.80000
O993        O  0.46450842  0.53211960  0.39978722    -0.72200
O994        O  0.03482390  0.95433489  0.35635668    -2.33200
O995        O  0.46436369  0.53076144  0.35885665    -2.29400
O996        O  0.03611165  0.95498795  0.39735746    -0.74000
H997        H  0.06393266  0.54813789  0.40857859     0.78000
H998        H  0.04844062  0.93776263  0.34702906     0.79100
H999        H  0.44130490  0.93874931  0.40691747     0.81300
H1000       H  0.45004478  0.54677438  0.35033158     0.78900
H1001       H  0.10869580  0.92153396  0.38492380     0.42000
H1002       H  0.05321174  0.87381327  0.38678542     0.41000
H1003       H  0.42072501  0.87762851  0.38483429     0.40600
H1004       H  0.37611275  0.93393026  0.39152276     0.38600
H1005       H  0.38842776  0.56439767  0.38697031     0.41700
H1006       H  0.44327114  0.60967207  0.37120696     0.36500
H1007       H  0.06357353  0.63639374  0.37677342     0.42600
H1008       H  0.13046208  0.54880929  0.39098837     0.39000
H1009       H  0.34992938  0.96053175  0.37983925     0.43900
H1010       H  0.47611637  0.63892609  0.37593262     0.42700
H1011       H  0.15517790  0.51493937  0.38458177     0.42800
H1012       H  0.02150053  0.84628020  0.37790772     0.43100
C1013       C  0.00257281  0.79045195  0.51255369     0.01900
C1014       C  0.00210511  0.78856953  0.49019503     0.01800
C1015       C  0.00188690  0.75353088  0.47956601    -0.18700
C1016       C  0.00055335  0.72036713  0.49047018     0.01900
C1017       C  0.99780000  0.72209944  0.51268985     0.01800
C1018       C  0.99927570  0.75710962  0.52334847    -0.18700
H1019       H  0.99835410  0.75840692  0.54044333     0.03900
H1020       H  0.00271955  0.75203573  0.46245990     0.03900
C1021       C  0.28783630  0.99437439  0.51216767     0.01900
C1022       C  0.28749500  0.99348573  0.48991806     0.01800
C1023       C  0.25314315  0.99365820  0.47909077    -0.18700
C1024       C  0.21904335  0.99661999  0.48988603     0.01900
C1025       C  0.21958994  0.00018963  0.51215236     0.01800
C1026       C  0.25380497  0.99785762  0.52291502    -0.18700
H1027       H  0.25401919  0.99949927  0.54002102     0.03900
H1028       H  0.25302215  0.99211795  0.46197835     0.03900
C1029       C  0.49292898  0.69890823  0.26550321     0.86100
C1030       C  0.45677884  0.69859417  0.25227670    -0.54200
C1031       C  0.45369200  0.72835185  0.23972382     0.09000
C1032       C  0.98751670  0.76416018  0.24163271     0.19900
C1033       C  0.02594432  0.71189530  0.24969278    -0.54900
C1034       C  0.02223216  0.74070496  0.23653169     0.09100
C1035       C  0.49420063  0.73642367  0.27775299    -0.54400
C1036       C  0.99085254  0.77456043  0.26550564     0.09700
H1037       H  0.43514740  0.67670601  0.25308304     0.14200
H1038       H  0.48486459  0.78093676  0.23174455    -0.00100
H1039       H  0.05087069  0.69561286  0.24908082     0.14500
H1040       H  0.49669383  0.73902863  0.29482776     0.14300
C1041       C  0.48320327  0.86692638  0.30404440    -0.06600
C1042       C  0.01609149  0.86896882  0.29157028    -0.17700
C1043       C  0.01871611  0.83738861  0.27802604     0.10600
C1044       C  0.48729031  0.80398081  0.27603417    -0.06500
C1045       C  0.45491797  0.81007941  0.28814733    -0.17700
C1046       C  0.45270854  0.84087845  0.30228227     0.10700
S1047       S  0.06367337  0.82911401  0.26612578    -0.32700
S1048       S  0.41094170  0.84445434  0.31817653    -0.32700
H1049       H  0.41355451  0.88326063  0.32189247     0.28700
H1050       H  0.06257698  0.79038911  0.26843466     0.28700
H1051       H  0.04047977  0.88757464  0.29380837     0.19300
H1052       H  0.43193052  0.78952212  0.28740681     0.19300
C1053       C  0.50140446  0.60937655  0.30949243    -0.06600
C1054       C  0.47275891  0.63490884  0.31162812    -0.17700
C1055       C  0.46804561  0.66236071  0.29690994     0.10600
C1056       C  0.49408094  0.66588279  0.28007343    -0.06500
C1057       C  0.02241639  0.64549887  0.27663249    -0.17700
C1058       C  0.02701763  0.61695389  0.29071465     0.10700
S1059       S  0.42820358  0.69212210  0.29993256    -0.32700
S1060       S  0.06312351  0.58404334  0.28488433    -0.32700
H1061       H  0.07184276  0.57681588  0.30590933     0.28700
H1062       H  0.40997707  0.67276076  0.31602923     0.28700
H1063       H  0.45364232  0.63289859  0.32481728     0.19300
H1064       H  0.03968780  0.64465251  0.26274159     0.19300
C1065       C  0.00943227  0.62157467  0.45064089    -0.06600
C1066       C  0.97599314  0.62780929  0.46162922    -0.17700
C1067       C  0.97212595  0.65967772  0.47475183     0.10600
C1068       C  0.00305809  0.68488633  0.47791948    -0.06500
C1069       C  0.03705838  0.67766520  0.46764095    -0.17700
C1070       C  0.04056063  0.64643751  0.45400682     0.10700
S1071       S  0.92630243  0.66801077  0.48550005    -0.32700
S1072       S  0.08522602  0.64025820  0.44118167    -0.32700
H1073       H  0.08120390  0.60154336  0.43743372     0.28700
H1074       H  0.92861372  0.70687493  0.48370073     0.28700
H1075       H  0.95193095  0.60903088  0.45887211     0.19300
H1076       H  0.06087292  0.69696661  0.46998160     0.19300
C1077       C  0.49442109  0.86996860  0.44726694    -0.06600
C1078       C  0.02664190  0.87705493  0.46112143    -0.17700
C1079       C  0.02987748  0.84824056  0.47520130     0.10600
C1080       C  0.00003744  0.82167488  0.47701164    -0.06500
C1081       C  0.46476727  0.81741971  0.46447523    -0.17700
C1082       C  0.46267549  0.84623395  0.45033249     0.10700
S1083       S  0.07383836  0.84526064  0.48898112    -0.32700
S1084       S  0.41881380  0.85103051  0.43659771    -0.32700
H1085       H  0.42296014  0.88947433  0.43363455     0.28700
H1086       H  0.07422342  0.80614226  0.48789343     0.28700
H1087       H  0.04980715  0.89706249  0.45963458     0.19300
H1088       H  0.44034032  0.79922174  0.46668179     0.19300
C1089       C  0.12265791  0.99152861  0.44881295    -0.06600
C1090       C  0.13008027  0.52849674  0.46196707    -0.17700
C1091       C  0.16088403  0.53253722  0.47570681     0.10600
C1092       C  0.18399630  0.99531440  0.47713445    -0.06500
C1093       C  0.17464907  0.96215759  0.46555581    -0.17700
C1094       C  0.14427844  0.95988624  0.45149731     0.10700
S1095       S  0.17107029  0.57811280  0.48758945    -0.32700
S1096       S  0.13471431  0.91591889  0.43745160    -0.32700
H1097       H  0.09635998  0.92101819  0.43379588     0.28700
H1098       H  0.21029737  0.57575897  0.48632595     0.28700
H1099       H  0.11347291  0.55249104  0.45907421     0.19300
H1100       H  0.19161246  0.93797893  0.46725375     0.19300
C1101       C  0.32213804  0.99476117  0.47728802    -0.06600
C1102       C  0.32957133  0.53172514  0.46759070    -0.17700
C1103       C  0.35943330  0.53259955  0.45342890     0.10600
C1104       C  0.38380880  0.99887605  0.45001130    -0.06500
C1105       C  0.37707862  0.96702487  0.46164595    -0.17700
C1106       C  0.34617612  0.96444047  0.47508307     0.10700
S1107       S  0.36677995  0.57411262  0.43869150    -0.32700
S1108       S  0.33777918  0.92111070  0.48784433    -0.32700
H1109       H  0.29845697  0.92149062  0.48621648     0.28700
H1110       H  0.40558630  0.57050016  0.43570898     0.28700
H1111       H  0.31178828  0.55556329  0.46913183     0.19300
H1112       H  0.39468361  0.94320227  0.45928617     0.19300
C1113       C  0.12682269  0.00845224  0.55457164    -0.06600
C1114       C  0.15084911  0.54298309  0.55562027    -0.17700
C1115       C  0.18071009  0.54350861  0.54145150     0.10600
C1116       C  0.18554448  0.00609155  0.52499714    -0.06500
C1117       C  0.15628660  0.97893518  0.52404875    -0.17700
C1118       C  0.12693883  0.97980403  0.53866416     0.10700
S1119       S  0.21375926  0.58270142  0.54394029    -0.32700
S1120       S  0.09212794  0.94221060  0.53709501    -0.32700
H1121       H  0.08835242  0.93909584  0.55902121     0.28700
H1122       H  0.22877378  0.57959503  0.52354630     0.28700
H1123       H  0.14900282  0.56527799  0.56756621     0.19300
H1124       H  0.15739874  0.95574883  0.51264207     0.19300
C1125       C  0.32277843  0.99313904  0.52491991    -0.06600
C1126       C  0.35016325  0.52595039  0.52541675    -0.17700
C1127       C  0.38114753  0.52710157  0.53907470     0.10600
C1128       C  0.38342280  0.99941807  0.55371030    -0.06500
C1129       C  0.35650616  0.97028375  0.55479760    -0.17700
C1130       C  0.32654320  0.96665291  0.54064092     0.10700
S1131       S  0.41520891  0.56498136  0.53679395    -0.32700
S1132       S  0.29371389  0.92798688  0.54409624    -0.32700
H1133       H  0.27986381  0.92546540  0.52335789     0.28700
H1134       H  0.42204524  0.57031237  0.55855468     0.28700
H1135       H  0.34766362  0.54764316  0.51417869     0.19300
H1136       H  0.35875341  0.95012534  0.56696474     0.19300
C1137       C  0.00002749  0.63240085  0.55540417    -0.06600
C1138       C  0.47221662  0.65109694  0.55938025    -0.17700
C1139       C  0.46878720  0.67888348  0.54470097     0.10600
C1140       C  0.99535295  0.68845076  0.52558104    -0.06500
C1141       C  0.02523677  0.66390169  0.52502127    -0.17700
C1142       C  0.02796937  0.63611186  0.53978641     0.10700
S1143       S  0.42990187  0.70943849  0.54826051    -0.32700
S1144       S  0.06914854  0.60826706  0.53885293    -0.32700
H1145       H  0.07273183  0.60572468  0.56082135     0.28700
H1146       H  0.42619933  0.71791555  0.52696140     0.28700
H1147       H  0.45218799  0.64952395  0.57217917     0.19300
H1148       H  0.04780928  0.66781808  0.51383423     0.19300
C1149       C  0.50628108  0.88270773  0.55079916    -0.06600
C1150       C  0.03291506  0.86181899  0.55558770    -0.17700
C1151       C  0.03408947  0.83114674  0.54142120     0.10600
C1152       C  0.50578424  0.81918805  0.52311143    -0.06500
C1153       C  0.47708131  0.84497851  0.52219486    -0.17700
C1154       C  0.47694988  0.87659388  0.53591649     0.10700
S1155       S  0.07170871  0.79948960  0.54503189    -0.32700
S1156       S  0.43733473  0.90637930  0.53469414    -0.32700
H1157       H  0.43445920  0.91325434  0.55659124     0.28700
H1158       H  0.07299873  0.78552859  0.52407691     0.28700
H1159       H  0.05392276  0.86496567  0.56797695     0.19300
H1160       H  0.45346133  0.83928676  0.51163903     0.19300
C1161       C  0.05007109  0.74724082  0.21932289    -0.06600
C1162       C  0.06338329  0.78354138  0.21536792    -0.17700
C1163       C  0.09368948  0.78982250  0.20158857     0.10600
C1164       C  0.11237676  0.75904356  0.19238357    -0.06500
C1165       C  0.09739453  0.72319933  0.19520231    -0.17700
C1166       C  0.06594982  0.71705249  0.20777377     0.10700
S1167       S  0.10620956  0.83749273  0.19622283    -0.32700
S1168       S  0.04599246  0.67022955  0.20692926    -0.32700
H1169       H  0.00913006  0.68155570  0.21006289     0.28700
H1170       H  0.12320066  0.83046416  0.17658449     0.28700
H1171       H  0.05024040  0.80714933  0.22301250     0.19300
H1172       H  0.10935130  0.69972805  0.18669812     0.19300
C1173       C  0.42096760  0.73262053  0.22538412    -0.06600
C1174       C  0.40309578  0.76692464  0.22553088    -0.17700
C1175       C  0.37281910  0.77280900  0.21194923     0.10600
C1176       C  0.36002463  0.74371713  0.19781897    -0.06500
C1177       C  0.37738311  0.70933801  0.19791480    -0.17700
C1178       C  0.40742341  0.70328462  0.21150362     0.10700
S1179       S  0.35260491  0.81821428  0.21310563    -0.32700
S1180       S  0.42947481  0.65871108  0.20961309    -0.32700
H1181       H  0.40191893  0.63988512  0.19691830     0.28700
H1182       H  0.34014067  0.81802077  0.19208420     0.28700
H1183       H  0.41297174  0.78942725  0.23622850     0.19300
H1184       H  0.36778709  0.68733513  0.18682210     0.19300
C1185       C  0.23296487  0.56623614  0.02428581    -0.06600
C1186       C  0.26208594  0.59349159  0.02318826    -0.17700
C1187       C  0.26411378  0.62452688  0.03739608     0.10600
C1188       C  0.23631668  0.62865805  0.05314052    -0.06500
C1189       C  0.20659757  0.60214829  0.05372980    -0.17700
C1190       C  0.20437599  0.57141279  0.03949805     0.10700
S1191       S  0.30431200  0.65608417  0.03554838    -0.32700
S1192       S  0.16477263  0.53928563  0.04217003    -0.32700
H1193       H  0.16444653  0.52523303  0.02120866     0.28700
H1194       H  0.30826162  0.66368379  0.05736257     0.28700
H1195       H  0.28472582  0.58943805  0.01206660     0.19300
H1196       H  0.18491517  0.60528630  0.06557177     0.19300
C1197       C  0.24344334  0.87184932  0.05572688    -0.06600
C1198       C  0.27669474  0.88305718  0.04579890    -0.17700
C1199       C  0.27742586  0.91197129  0.03176207     0.10600
C1200       C  0.24396908  0.93008221  0.02734274    -0.06500
C1201       C  0.21062480  0.91916804  0.03751616    -0.17700
C1202       C  0.21001534  0.89032759  0.05171545     0.10700
S1203       S  0.32237079  0.92587472  0.02117866    -0.32700
S1204       S  0.16642247  0.88005097  0.06511171    -0.32700
H1205       H  0.17381976  0.84322512  0.06997652     0.28700
H1206       H  0.31564975  0.96418603  0.02140569     0.28700
H1207       H  0.30277213  0.87084357  0.05001823     0.19300
H1208       H  0.18507732  0.93372495  0.03464620     0.19300
C1209       C  0.23786784  0.56035593  0.97649306    -0.06600
C1210       C  0.27233264  0.57310382  0.96840951    -0.17700
C1211       C  0.27416307  0.60135918  0.95393145     0.10600
C1212       C  0.24065133  0.61700941  0.94713165    -0.06500
C1213       C  0.20617152  0.60419750  0.95512906    -0.17700
C1214       C  0.20434494  0.57606816  0.96973184     0.10700
S1215       S  0.31994968  0.61468474  0.94409153    -0.32700
S1216       S  0.15842240  0.56086987  0.97847557    -0.32700
H1217       H  0.16705311  0.52368622  0.98164270     0.28700
H1218       H  0.31115301  0.65046254  0.93809813     0.28700
H1219       H  0.29801104  0.56042047  0.97319350     0.19300
H1220       H  0.18037166  0.61505476  0.94930508     0.19300
C1221       C  0.25064251  0.92375773  0.97964806    -0.06600
C1222       C  0.22189449  0.89612823  0.98108745    -0.17700
C1223       C  0.21997989  0.86478768  0.96706985     0.10600
C1224       C  0.24760920  0.86046934  0.95128983    -0.06500
C1225       C  0.27719589  0.88710673  0.95047298    -0.17700
C1226       C  0.27936248  0.91820210  0.96450394     0.10700
S1227       S  0.17991610  0.83310333  0.96894010    -0.32700
S1228       S  0.31934480  0.94989041  0.96173040    -0.32700
H1229       H  0.31831765  0.96669622  0.98204445     0.28700
H1230       H  0.17453230  0.82774499  0.94704140     0.28700
H1231       H  0.19936509  0.90014863  0.99229236     0.19300
H1232       H  0.29872919  0.88385317  0.93855369     0.19300
C1233       C  0.49610189  0.62170717  0.70053625    -0.06600
C1234       C  0.46333032  0.64202288  0.70033076    -0.17700
C1235       C  0.45842567  0.67224714  0.71437936     0.10600
C1236       C  0.48724037  0.68273148  0.72907380    -0.06500
C1237       C  0.02994962  0.69159431  0.71754587    -0.17700
C1238       C  0.03354869  0.66179803  0.70285907     0.10700
S1239       S  0.41568498  0.69733300  0.71151650    -0.32700
S1240       S  0.07762982  0.65882902  0.68902493    -0.32700
H1241       H  0.07326623  0.62177845  0.68136948     0.28700
H1242       H  0.41938122  0.72084182  0.72956239     0.28700
H1243       H  0.44181728  0.63499441  0.68858517     0.19300
H1244       H  0.05375665  0.71071821  0.72044199     0.19300
C1245       C  0.50400565  0.87900999  0.69283195    -0.06600
C1246       C  0.49406569  0.88705506  0.71396443    -0.17700
C1247       C  0.49227267  0.85913982  0.72896544     0.10600
C1248       C  0.49839134  0.82155242  0.72248062    -0.06500
C1249       C  0.02271176  0.83368606  0.70762432    -0.17700
C1250       C  0.02666906  0.86198857  0.69331141     0.10700
S1251       S  0.48544302  0.87282781  0.75639766    -0.32700
S1252       S  0.05863530  0.85613502  0.67141564    -0.32700
H1253       H  0.07202056  0.82128226  0.67658750     0.28700
H1254       H  0.47932184  0.91072411  0.75349654     0.28700
H1255       H  0.48794436  0.91541294  0.71879478     0.19300
H1256       H  0.03729210  0.80816346  0.70450504     0.19300
C1257       C  0.06408392  0.76128781  0.77974439    -0.06600
C1258       C  0.07267231  0.72395840  0.78300361    -0.17700
C1259       C  0.10191760  0.71473152  0.79652662     0.10600
C1260       C  0.12488458  0.74345477  0.80605883    -0.06500
C1261       C  0.11707248  0.78050212  0.80258328    -0.17700
C1262       C  0.08645082  0.78991081  0.79036677     0.10700
S1263       S  0.10708539  0.66598229  0.80139394    -0.32700
S1264       S  0.07678972  0.83897430  0.79108847    -0.32700
H1265       H  0.03775024  0.83447729  0.78956208     0.28700
H1266       H  0.13926468  0.66900490  0.81419549     0.28700
H1267       H  0.05633388  0.70156865  0.77512716     0.19300
H1268       H  0.13370004  0.80254914  0.81068548     0.19300
C1269       C  0.43223094  0.75255758  0.78186867    -0.06600
C1270       C  0.40372547  0.72531644  0.77755342    -0.17700
C1271       C  0.37330082  0.72047965  0.79135923     0.10600
C1272       C  0.37137757  0.74327348  0.81001033    -0.06500
C1273       C  0.40040457  0.76992927  0.81438442    -0.17700
C1274       C  0.43054235  0.77468219  0.80060932     0.10700
S1275       S  0.33864458  0.68421675  0.78459943    -0.32700
S1276       S  0.46652736  0.80911286  0.80780546    -0.32700
H1277       H  0.49578153  0.78486935  0.80309580     0.28700
H1278       H  0.33331164  0.67298977  0.80539600     0.28700
H1279       H  0.40512340  0.70760480  0.76342022     0.19300
H1280       H  0.39953924  0.78745737  0.82866885     0.19300
C1281       C  0.32066603  0.98369950  0.72256559    -0.06600
C1282       C  0.34418186  0.51162517  0.72662802    -0.17700
C1283       C  0.37599322  0.51572690  0.71365818     0.10600
C1284       C  0.38252973  0.99191579  0.69534534    -0.06500
C1285       C  0.35622425  0.96238474  0.69213577    -0.17700
C1286       C  0.32551750  0.95801370  0.70546103     0.10700
S1287       S  0.41019354  0.55209938  0.72085869    -0.32700
S1288       S  0.29321785  0.91932451  0.69959272    -0.32700
H1289       H  0.26117829  0.93872495  0.70557864     0.28700
H1290       H  0.41696039  0.56277058  0.70008610     0.28700
H1291       H  0.34184422  0.52928454  0.74077529     0.19300
H1292       H  0.35945044  0.94266207  0.67893115     0.19300
C1293       C  0.13097959  0.00537593  0.69659953    -0.06600
C1294       C  0.14025676  0.96837056  0.69929953    -0.17700
C1295       C  0.17038290  0.95921305  0.71218830     0.10600
C1296       C  0.19136782  0.98800433  0.72349685    -0.06500
C1297       C  0.17216500  0.52521416  0.72158671    -0.15700
C1298       C  0.14162786  0.53387829  0.70886611     0.10700
S1299       S  0.18353382  0.91097283  0.71171105    -0.32700
S1300       S  0.12790473  0.58156195  0.70894043    -0.32700
H1301       H  0.08932597  0.57310959  0.70645401     0.28700
H1302       H  0.15038488  0.89554948  0.70237723     0.28700
H1303       H  0.12466743  0.94655467  0.69043439     0.19300
H1304       H  0.18552325  0.54711763  0.73135843     0.19300
C1305       C  0.25632128  0.61389625  0.80448412    -0.06600
C1306       C  0.28249314  0.58640775  0.80770600    -0.17700
C1307       C  0.28535462  0.55554837  0.79376116     0.10600
C1308       C  0.26009132  0.55051092  0.77651140    -0.06500
C1309       C  0.23609091  0.57947295  0.77221676    -0.17700
C1310       C  0.23413651  0.61129469  0.78590519     0.10700
S1311       S  0.32183489  0.52348789  0.79909584    -0.32700
S1312       S  0.20103431  0.64660299  0.78039158    -0.32700
H1313       H  0.18674866  0.63002033  0.76144751     0.28700
H1314       H  0.32579050  0.51023438  0.77809760     0.28700
H1315       H  0.30082208  0.58885608  0.82138430     0.19300
H1316       H  0.21722284  0.57614872  0.75891035     0.19300
C1317       C  0.25152696  0.91304062  0.77995240    -0.06600
C1318       C  0.27826573  0.88482044  0.77966032    -0.17700
C1319       C  0.27689742  0.85633367  0.79404130     0.10600
C1320       C  0.24785710  0.85521022  0.80896015    -0.06500
C1321       C  0.22066243  0.88229297  0.80919634    -0.17700
C1322       C  0.22182640  0.91092987  0.79490494     0.10700
S1323       S  0.31442140  0.82365851  0.79445397    -0.32700
S1324       S  0.18547948  0.94499497  0.79668831    -0.32700
H1325       H  0.16221602  0.92664630  0.81113700     0.28700
H1326       H  0.32977006  0.83167165  0.77467408     0.28700
H1327       H  0.30131564  0.88486757  0.76884697     0.19300
H1328       H  0.19854393  0.88106543  0.82085071     0.19300
C1329       C  0.12468313  0.75166265  0.05136463    -0.06600
C1330       C  0.11661789  0.78354337  0.04041647    -0.17700
C1331       C  0.08538889  0.78380927  0.02699596     0.10600
C1332       C  0.06226247  0.75126660  0.02425832    -0.06500
C1333       C  0.07160731  0.71894920  0.03445746    -0.17700
C1334       C  0.10284768  0.71866459  0.04767954     0.10700
S1335       S  0.07539567  0.82689625  0.01492881    -0.32700
S1336       S  0.11326266  0.67558398  0.05968810    -0.32700
H1337       H  0.15247244  0.68140995  0.05922082     0.28700
H1338       H  0.03615253  0.82263351  0.01643458     0.28700
H1339       H  0.13352548  0.80885452  0.04316357     0.19300
H1340       H  0.05417746  0.69379644  0.03217761     0.19300
C1341       C  0.42586143  0.74093322  0.02690414    -0.06600
C1342       C  0.39884384  0.76813504  0.02534086    -0.17700
C1343       C  0.36853904  0.76956174  0.03921085     0.10600
C1344       C  0.36557046  0.74391328  0.05547268    -0.06500
C1345       C  0.39218750  0.71633811  0.05680221    -0.17700
C1346       C  0.42178966  0.71405003  0.04251851     0.10700
S1347       S  0.33582605  0.80581502  0.03584428    -0.32700
S1348       S  0.45305186  0.67596494  0.04519280    -0.32700
H1349       H  0.46576318  0.67425364  0.02426846     0.28700
H1350       H  0.33161438  0.81387318  0.05756373     0.28700
H1351       H  0.40204294  0.78924968  0.01370612     0.19300
H1352       H  0.38962702  0.69608375  0.06896727     0.19300
C1353       C  0.11852714  0.74200284  0.94742478    -0.06600
C1354       C  0.09246916  0.76998238  0.94535063    -0.17700
C1355       C  0.06375295  0.77490388  0.96001596     0.10600
C1356       C  0.05978636  0.75010150  0.97668886    -0.06500
C1357       C  0.08635748  0.72262086  0.97898644    -0.17700
C1358       C  0.11593797  0.71869200  0.96477343     0.10700
S1359       S  0.03318100  0.81326972  0.95641842    -0.32700
S1360       S  0.14802855  0.68211446  0.96906688    -0.32700
H1361       H  0.15377756  0.67341288  0.94756048     0.28700
H1362       H  0.52276037  0.81506404  0.97689704     0.28700
H1363       H  0.09488486  0.78856430  0.93234420     0.19300
H1364       H  0.08308084  0.70282894  0.99131818     0.19300
C1365       C  0.42191026  0.74343381  0.97938295    -0.06600
C1366       C  0.41578620  0.77545481  0.96809106    -0.17700
C1367       C  0.38505516  0.77726939  0.95460578     0.10600
C1368       C  0.36003915  0.74623794  0.95210521    -0.06500
C1369       C  0.36437479  0.71534601  0.96457242    -0.17700
C1370       C  0.39540303  0.71330850  0.97795406     0.10700
S1371       S  0.37927168  0.81980634  0.94097397    -0.32700
S1372       S  0.40076197  0.67070902  0.99146759    -0.32700
H1373       H  0.43991102  0.67015821  0.98898199     0.28700
H1374       H  0.33996932  0.81621393  0.93901878     0.28700
H1375       H  0.43559666  0.79898812  0.96952313     0.19300
H1376       H  0.34485021  0.69170551  0.96287642     0.19300
C1377       C  0.31129771  0.01030557  0.28208155    -0.06600
C1378       C  0.33474155  0.97998258  0.27875570    -0.17700
C1379       C  0.36638330  0.97540859  0.29157025     0.10600
C1380       C  0.37468087  0.00128452  0.30845593    -0.06500
C1381       C  0.34788042  0.52737405  0.31396900    -0.17700
C1382       C  0.31683167  0.53228375  0.30095419     0.10700
S1383       S  0.39368195  0.93488295  0.28642431    -0.32700
S1384       S  0.28312265  0.56579897  0.30978093    -0.32700
H1385       H  0.25157318  0.54705719  0.30057635     0.28700
H1386       H  0.42770009  0.95534120  0.28448102     0.28700
H1387       H  0.32891185  0.96019437  0.26572411     0.19300
H1388       H  0.35027215  0.54378892  0.32864991     0.19300
C1389       C  0.12286053  0.98723761  0.30628299    -0.06600
C1390       C  0.11453919  0.99635190  0.28548051    -0.17700
C1391       C  0.14274357  0.99937052  0.27015703     0.10600
C1392       C  0.18089734  0.99533521  0.27580136    -0.06500
C1393       C  0.19017592  0.48142437  0.29686642    -0.17700
C1394       C  0.16209126  0.47613927  0.31207557     0.10700
S1395       S  0.12792851  0.00715269  0.24353533    -0.32700
S1396       S  0.17566009  0.45730034  0.33689740    -0.32700
H1397       H  0.21325048  0.45043673  0.33178247     0.28700
H1398       H  0.15783688  0.98856628  0.23380732     0.28700
H1399       H  0.08584633  0.00140110  0.28104783     0.19300
H1400       H  0.21920133  0.47734912  0.30094218     0.19300
C1401       C  0.24512506  0.58148678  0.22553148    -0.06600
C1402       C  0.20937576  0.59154197  0.21828798    -0.17700
C1403       C  0.20499135  0.61953874  0.20391445     0.10600
C1404       C  0.23694367  0.63835129  0.19618274    -0.06500
C1405       C  0.27257925  0.62852012  0.20279162    -0.17700
C1406       C  0.27722719  0.59961148  0.21659028     0.10700
S1407       S  0.15785935  0.62823902  0.19525747    -0.32700
S1408       S  0.32505835  0.58634314  0.22043146    -0.32700
H1409       H  0.31740427  0.54823412  0.21662195     0.28700
H1410       H  0.16510215  0.66355094  0.18723573     0.28700
H1411       H  0.18419645  0.57639108  0.22281494     0.19300
H1412       H  0.29720396  0.64216731  0.19615810     0.19300
C1413       C  0.26106998  0.94370353  0.22464037    -0.06600
C1414       C  0.23553505  0.91424274  0.22846605    -0.17700
C1415       C  0.23367995  0.88214384  0.21511723     0.10600
C1416       C  0.25768979  0.87947612  0.19739343    -0.06500
C1417       C  0.28538241  0.90758842  0.19477139    -0.17700
C1418       C  0.28798937  0.93906921  0.20850836     0.10700
S1419       S  0.19834305  0.84703066  0.22075687    -0.32700
S1420       S  0.32648825  0.97250164  0.20572435    -0.32700
H1421       H  0.34839048  0.44713060  0.19425345     0.28700
H1422       H  0.18664096  0.84173833  0.19966876     0.28700
H1423       H  0.21529363  0.91721165  0.24109528     0.19300
H1424       H  0.30487643  0.90493801  0.18176710     0.19300
C1425       C  0.74707845  0.04442844  0.23773160     0.86100
C1426       C  0.71074245  0.03445031  0.24973484    -0.54200
C1427       C  0.71424653  0.50490129  0.26246921     0.09000
C1428       C  0.75203496  0.48499469  0.26022682     0.19900
C1429       C  0.77689971  0.04614499  0.25543872    -0.54900
C1430       C  0.78226883  0.51516271  0.26662395     0.09100
C1431       C  0.75511392  0.00937960  0.22419299    -0.54400
C1432       C  0.75734542  0.47841445  0.23634232     0.09700
H1433       H  0.68706428  0.05261422  0.25083611     0.14200
H1434       H  0.75359239  0.45924106  0.26923710    -0.00100
H1435       H  0.79442213  0.07048081  0.25969813     0.14500
H1436       H  0.75702142  0.50983136  0.20818139     0.14300
C1437       C  0.95828195  0.25065943  0.99141986     0.01900
C1438       C  0.95999904  0.25211313  0.01367432     0.01800
C1439       C  0.49327165  0.24719486  0.02278395    -0.18700
C1440       C  0.52687025  0.24887041  0.01147239     0.01900
C1441       C  0.52573561  0.24696042  0.98919562     0.01800
C1442       C  0.49076850  0.24257781  0.97901474    -0.18700
H1443       H  0.48956289  0.24057661  0.96192455     0.03900
H1444       H  0.49435836  0.24942539  0.03987671     0.03900
C1445       C  0.75189070  0.44435150  0.76478006     0.86100
C1446       C  0.71770308  0.45125535  0.75082542    -0.54200
C1447       C  0.72034669  0.48321684  0.73980798     0.09000
C1448       C  0.75893892  0.00574480  0.74310449     0.19900
C1449       C  0.78549547  0.44567352  0.74941719    -0.54900
C1450       C  0.78823689  0.47735180  0.73832590     0.09100
C1451       C  0.75786955  0.48008338  0.77859165    -0.54400
C1452       C  0.76220100  0.01191151  0.76711351     0.09700
H1453       H  0.69350004  0.43208827  0.74966469     0.14200
H1454       H  0.76173928  0.03224695  0.73482918    -0.00100
H1455       H  0.80647146  0.42483249  0.74743636     0.14500
H1456       H  0.75938442  0.48032479  0.79570145     0.14300
C1457       C  0.49489091  0.28855681  0.73773505     0.86100
C1458       C  0.96087144  0.30044265  0.75516737    -0.54200
C1459       C  0.96162340  0.27019172  0.76764795     0.09000
C1460       C  0.49398568  0.23081332  0.76176021     0.19900
C1461       C  0.53083615  0.28463612  0.75047015    -0.54900
C1462       C  0.53045317  0.25559854  0.76371772     0.09100
C1463       C  0.48962736  0.25083606  0.72570632    -0.54400
C1464       C  0.48922575  0.22065852  0.73802215     0.09700
H1465       H  0.93737162  0.31876869  0.75548080     0.14200
H1466       H  0.49309520  0.20637438  0.77191283    -0.00100
H1467       H  0.55501979  0.30333856  0.74865894     0.14500
H1468       H  0.48591697  0.24787180  0.70873242     0.14300
C1469       C  0.74285589  0.46252634  0.01239503     0.01900
C1470       C  0.74707492  0.46013168  0.99022568     0.01800
C1471       C  0.74012788  0.99249796  0.97931261    -0.18700
C1472       C  0.73746815  0.02734570  0.98996360     0.01900
C1473       C  0.73494027  0.02940941  0.01219473     0.01800
C1474       C  0.73549764  0.99618252  0.02310781    -0.18700
H1475       H  0.73407000  0.99749958  0.04019258     0.03900
H1476       H  0.74141201  0.99131195  0.96222460     0.03900
O1477       O  0.84560474  0.24805293  0.91562816    -0.75700
O1478       O  0.79831067  0.24151905  0.93955632    -0.54600
C1479       C  0.83295635  0.24642779  0.93458091     0.78000
O1480       O  0.74033512  0.33588310  0.84199840    -0.60300
O1481       O  0.74557575  0.28843133  0.81732686    -0.53400
C1482       C  0.74297879  0.32297088  0.82283718     0.70000
O1483       O  0.74517184  0.34191392  0.91335443    -0.74900
O1484       O  0.74143845  0.29759195  0.93815917    -0.55400
C1485       C  0.74383796  0.33163808  0.93256789     0.76000
O1486       O  0.85001334  0.24242057  0.84460811    -0.60000
O1487       O  0.80532630  0.23573802  0.81868131    -0.53100
C1488       C  0.83951516  0.24025892  0.82519240     0.72600
Zr1489     Zr  0.82209740  0.24049363  0.87944302     2.54700
O1490       O  0.86938926  0.29102328  0.88034320    -0.80600
O1491       O  0.87020165  0.19409426  0.88071413    -0.94000
Zr1492     Zr  0.74159528  0.31333532  0.87776764     2.64700
O1493       O  0.78878107  0.36354564  0.87526826    -0.99000
O1494       O  0.69036407  0.35646770  0.87909202    -0.81000
O1495       O  0.78152190  0.27912367  0.89917947    -0.84400
O1496       O  0.78325144  0.27589813  0.85808781    -2.19100
O1497       O  0.75358985  0.13071054  0.84164137    -0.67800
O1498       O  0.74908511  0.17448604  0.81678207    -0.52300
C1499       C  0.75319517  0.14092924  0.82238369     0.71000
O1500       O  0.63810427  0.23502078  0.91193214    -0.60700
O1501       O  0.68353099  0.23868917  0.93742263    -0.52700
C1502       C  0.64918870  0.23770473  0.93127999     0.72800
O1503       O  0.63933564  0.22949047  0.84110738    -0.72100
O1504       O  0.68674253  0.23177414  0.81692511    -0.50700
C1505       C  0.65178595  0.23101220  0.82216195     0.74200
O1506       O  0.74483035  0.13307368  0.91267237    -0.67400
O1507       O  0.74001083  0.18064852  0.93745265    -0.54600
C1508       C  0.74212962  0.14598645  0.93179755     0.72600
Zr1509     Zr  0.74544810  0.15752562  0.87737547     2.77500
O1510       O  0.69327083  0.11200641  0.87572527    -0.98200
O1511       O  0.79163929  0.10923445  0.87834695    -0.79000
Zr1512     Zr  0.66504396  0.23046426  0.87667130     2.70100
O1513       O  0.62076664  0.17741649  0.87689268    -0.80200
O1514       O  0.61443374  0.27436926  0.87638367    -0.99300
Zr1515     Zr  0.74183304  0.23807318  0.91837778     2.21500
Zr1516     Zr  0.74534374  0.23258785  0.83708475     2.11100
O1517       O  0.70517549  0.19176333  0.85626750    -2.48000
O1518       O  0.70388355  0.19463363  0.89769638    -0.80000
O1519       O  0.78564799  0.19723317  0.85797471    -0.72200
O1520       O  0.70187728  0.27401783  0.89757585    -2.33200
O1521       O  0.78356825  0.19941812  0.89881120    -2.29400
O1522       O  0.70358770  0.27099411  0.85672796    -0.74000
H1523       H  0.79859278  0.29171302  0.84936109     0.78000
H1524       H  0.68596932  0.28940550  0.90635162     0.79100
H1525       H  0.69061422  0.17511042  0.84686645     0.81300
H1526       H  0.79897434  0.18570137  0.90806639     0.78900
H1527       H  0.67221103  0.34619997  0.86835965     0.42000
H1528       H  0.61847441  0.28861314  0.86349751     0.41000
H1529       H  0.62682529  0.16455228  0.88991937     0.40600
H1530       H  0.70525154  0.08765299  0.87653876     0.38600
H1531       H  0.81098814  0.11926146  0.88846427     0.41700
H1532       H  0.86023862  0.17293133  0.87167082     0.36500
H1533       H  0.85525402  0.31351854  0.87746576     0.42600
H1534       H  0.77449915  0.38663161  0.87691203     0.39000
H1535       H  0.68030877  0.11540594  0.88942562     0.43900
H1536       H  0.86894759  0.18492880  0.89521237     0.42700
H1537       H  0.80372648  0.36282565  0.88840703     0.42800
H1538       H  0.59147968  0.25874565  0.87339096     0.43100
O1539       O  0.84355805  0.24907951  0.16234428    -0.75700
O1540       O  0.79692713  0.25535925  0.18677827    -0.54600
C1541       C  0.83154521  0.25176553  0.18144988     0.78000
O1542       O  0.74592781  0.35732153  0.09057472    -0.60300
O1543       O  0.74494492  0.31003371  0.06533007    -0.53400
C1544       C  0.74487281  0.34470388  0.07127970     0.70000
O1545       O  0.75314045  0.35868305  0.16204285    -0.74900
O1546       O  0.74565680  0.31427276  0.18656441    -0.55400
C1547       C  0.75106124  0.34813602  0.18122008     0.76000
O1548       O  0.84723765  0.24649799  0.09123779    -0.60000
O1549       O  0.80225974  0.24958437  0.06574139    -0.53100
C1550       C  0.83645996  0.24753615  0.07188129     0.72600
Zr1551     Zr  0.81943041  0.25023309  0.12634821     2.54700
O1552       O  0.86873399  0.29880982  0.12875605    -0.80600
O1553       O  0.86435307  0.20063307  0.12610168    -0.94000
Zr1554     Zr  0.74872957  0.33245903  0.12588074     2.64700
O1555       O  0.80368833  0.37463943  0.12578513    -0.99000
O1556       O  0.70573779  0.38365870  0.12744588    -0.81000
O1557       O  0.78340832  0.29246424  0.14670958    -0.84400
O1558       O  0.78583689  0.29111499  0.10537860    -2.19100
O1559       O  0.73338557  0.14872482  0.08866534    -0.67800
O1560       O  0.74180329  0.19305162  0.06414239    -0.52300
C1561       C  0.73731907  0.15899709  0.06955093     0.71000
O1562       O  0.63378337  0.25846565  0.15801096    -0.60700
O1563       O  0.67832364  0.25766791  0.18396489    -0.52700
C1564       C  0.64400274  0.25779390  0.17740800     0.72800
O1565       O  0.63897893  0.25370952  0.08761513    -0.72100
O1566       O  0.68644949  0.25308494  0.06344846    -0.50700
C1567       C  0.65161188  0.25241503  0.06861498     0.74200
O1568       O  0.73213748  0.15157564  0.15961181    -0.67400
O1569       O  0.73647166  0.19879532  0.18485010    -0.54600
C1570       C  0.73404829  0.16417461  0.17888842     0.72600
Zr1571     Zr  0.73349995  0.17670251  0.12440890     2.77500
O1572       O  0.67613881  0.13795194  0.12396091    -0.98200
O1573       O  0.77421564  0.12365048  0.12322553    -0.79000
Zr1574     Zr  0.66331725  0.25954291  0.12360251     2.70100
O1575       O  0.60733861  0.21884559  0.12294871    -0.80200
O1576       O  0.62645311  0.31525718  0.12249545    -0.99300
Zr1577     Zr  0.73916552  0.25623738  0.16602221     2.21500
Zr1578     Zr  0.74335221  0.25247612  0.08429512     2.11100
O1579       O  0.69888838  0.21636092  0.10352391    -2.48000
O1580       O  0.69664101  0.21848023  0.14465948    -0.80000
O1581       O  0.77817267  0.21169857  0.10496209    -0.72200
O1582       O  0.70426202  0.29755154  0.14552142    -2.33200
O1583       O  0.77619392  0.21366892  0.14576530    -2.29400
O1584       O  0.70661835  0.29552114  0.10412656    -0.74000
H1585       H  0.80284052  0.30523240  0.09666721     0.78000
H1586       H  0.68986703  0.31408121  0.15449459     0.79100
H1587       H  0.68275666  0.20113254  0.09422661     0.81300
H1588       H  0.78994563  0.19789113  0.15474133     0.78900
H1589       H  0.68208078  0.37288049  0.12124468     0.42000
H1590       H  0.61934762  0.31709904  0.10748940     0.41000
H1591       H  0.61674353  0.19374712  0.11945318     0.40600
H1592       H  0.68487975  0.11221349  0.12486541     0.38600
H1593       H  0.79686464  0.13249993  0.11564396     0.41700
H1594       H  0.85614634  0.18448576  0.13762164     0.36500
H1595       H  0.86163974  0.31500905  0.14100145     0.42600
H1596       H  0.81388663  0.37216063  0.11131546     0.39000
H1597       H  0.66424605  0.14340941  0.13778398     0.43900
H1598       H  0.88806948  0.21291749  0.13131284     0.42700
H1599       H  0.79329851  0.39985441  0.12668103     0.42800
H1600       H  0.60266621  0.30854207  0.12965990     0.43100
O1601       O  0.60936431  0.50729306  0.66213588    -0.75700
O1602       O  0.56334895  0.50520877  0.68684773    -0.54600
C1603       C  0.59813259  0.50629907  0.68140362     0.78000
O1604       O  0.00624537  0.11542913  0.59178787    -0.60300
O1605       O  0.00746045  0.06848237  0.56644465    -0.53400
C1606       C  0.00661725  0.10303968  0.57242992     0.70000
O1607       O  0.00869527  0.11941439  0.66308740    -0.74900
O1608       O  0.00690950  0.07436506  0.68757493    -0.55400
C1609       C  0.00755657  0.10852909  0.68217206     0.76000
O1610       O  0.61003336  0.50667648  0.59104298    -0.60000
O1611       O  0.56365568  0.50364103  0.56602419    -0.53100
C1612       C  0.59717738  0.00263483  0.57080185     0.72600
Zr1613     Zr  0.58373860  0.50616574  0.62646989     2.54700
O1614       O  0.62991309  0.05743977  0.62670744    -0.80600
O1615       O  0.62977944  0.45754101  0.62523215    -0.94000
Zr1616     Zr  0.00872174  0.09157213  0.62735295     2.64700
O1617       O  0.55815772  0.12636938  0.62979368    -0.99000
O1618       O  0.96172057  0.13919488  0.62852653    -0.81000
O1619       O  0.54536164  0.04372950  0.64742941    -0.84400
O1620       O  0.54538363  0.04427968  0.60595656    -2.19100
O1621       O  0.00346404  0.40926251  0.58829087    -0.67800
O1622       O  0.00054878  0.45405732  0.56388992    -0.52300
C1623       C  0.00236594  0.41993287  0.56918387     0.71000
O1624       O  0.89671467  0.50322597  0.65972310    -0.60700
O1625       O  0.94195632  0.51002322  0.68527990    -0.52700
C1626       C  0.90770672  0.50445959  0.67905243     0.72800
O1627       O  0.89777099  0.50774300  0.58935520    -0.72100
O1628       O  0.94754782  0.01063770  0.56607224    -0.50700
C1629       C  0.90974613  0.50837601  0.57024665     0.74200
O1630       O  0.00139417  0.41058982  0.65919151    -0.67400
O1631       O  0.00127402  0.45667527  0.68496144    -0.54600
C1632       C  0.00172708  0.42213754  0.67867312     0.72600
Zr1633     Zr  0.00101109  0.43607368  0.62414647     2.77500
O1634       O  0.94943471  0.38982721  0.62389272    -0.98200
O1635       O  0.55689410  0.38170804  0.62291622    -0.79000
Zr1636     Zr  0.92331283  0.51216887  0.62503068     2.70100
O1637       O  0.87088487  0.46698078  0.62305972    -0.80200
O1638       O  0.88833753  0.06576793  0.62952073    -0.99300
Zr1639     Zr  0.00139938  0.51477823  0.66643805     2.21500
Zr1640     Zr  0.00196474  0.51273217  0.58470124     2.11100
O1641       O  0.96149059  0.47269000  0.60408510    -2.48000
O1642       O  0.96155943  0.47406250  0.64511695    -0.80000
O1643       O  0.54550084  0.46561494  0.60453716    -0.72200
O1644       O  0.96818147  0.05346676  0.64770983    -2.33200
O1645       O  0.54516321  0.46481050  0.64577791    -2.29400
O1646       O  0.96781343  0.05199484  0.60623419    -0.74000
H1647       H  0.56088018  0.06006289  0.59732144     0.78000
H1648       H  0.95280080  0.06858446  0.65690790     0.79100
H1649       H  0.94609437  0.45663989  0.59477220     0.81300
H1650       H  0.56060812  0.44997438  0.65441337     0.78900
H1651       H  0.94678756  0.13456799  0.61545380     0.42000
H1652       H  0.89585203  0.08144529  0.61766421     0.41000
H1653       H  0.88115309  0.44398288  0.62851970     0.40600
H1654       H  0.93075231  0.39901692  0.61395713     0.38600
H1655       H  0.57443157  0.39119146  0.61213987     0.41700
H1656       H  0.62573592  0.44388948  0.63832498     0.36500
H1657       H  0.62342737  0.07259414  0.61461829     0.42600
H1658       H  0.54669373  0.14996730  0.63453469     0.39000
H1659       H  0.95956371  0.36756444  0.61651187     0.43900
H1660       H  0.65423859  0.47104207  0.62742392     0.42700
H1661       H  0.57301391  0.11908496  0.64207924     0.42800
H1662       H  0.86313346  0.05538915  0.62549417     0.43100
O1663       O  0.00596541  0.09998524  0.34405826    -0.75700
O1664       O  0.00126172  0.05368683  0.31830525    -0.54600
C1665       C  0.00340830  0.08815017  0.32468951     0.78000
O1666       O  0.60439724  0.48310960  0.41389805    -0.60300
O1667       O  0.55865671  0.49042528  0.43872380    -0.53400
C1668       C  0.59543891  0.98597726  0.43171240     0.70000
O1669       O  0.60573462  0.48450203  0.34350664    -0.74900
O1670       O  0.56047927  0.48570669  0.31828922    -0.55400
C1671       C  0.59526748  0.48447267  0.32415047     0.76000
O1672       O  0.01119056  0.10242521  0.41479856    -0.60000
O1673       O  0.00334250  0.05707341  0.43878401    -0.53100
C1674       C  0.50909363  0.08257653  0.43359601     0.72600
Zr1675     Zr  0.00787138  0.07475135  0.37898151     2.54700
O1676       O  0.56750828  0.10529201  0.37718363    -0.80600
O1677       O  0.96384404  0.12506351  0.38197940    -0.94000
Zr1678     Zr  0.57817494  0.48466734  0.37840564     2.64700
O1679       O  0.63337832  0.02586491  0.37630971    -0.99000
O1680       O  0.61994381  0.43243435  0.37775774    -0.81000
O1681       O  0.54454086  0.02455061  0.35699179    -0.84400
O1682       O  0.54628551  0.02609942  0.39830789    -2.19100
O1683       O  0.89980649  0.51155690  0.41530415    -0.67800
O1684       O  0.94489555  0.99962020  0.43877363    -0.52300
C1685       C  0.91185616  0.50889339  0.43430849     0.71000
O1686       O  0.98386899  0.39234664  0.34194988    -0.60700
O1687       O  0.99403099  0.43695315  0.31771240    -0.52700
C1688       C  0.98715029  0.40322101  0.32287490     0.72800
O1689       O  0.98952324  0.39468698  0.41339398    -0.72100
O1690       O  0.99887517  0.44166731  0.43839476    -0.50700
C1691       C  0.99356487  0.40714503  0.43262767     0.74200
O1692       O  0.89618650  0.50685696  0.34445088    -0.67400
O1693       O  0.94046906  0.49793007  0.31900505    -0.54600
C1694       C  0.90637331  0.50306277  0.32507839     0.72600
Zr1695     Zr  0.92359811  0.50422534  0.37939689     2.77500
O1696       O  0.87399532  0.45594439  0.37958047    -0.98200
O1697       O  0.88063615  0.05446748  0.38070383    -0.79000
Zr1698     Zr  0.99085651  0.41915924  0.37797922     2.70100
O1699       O  0.93646787  0.37644840  0.37885876    -0.80200
O1700       O  0.53528469  0.36106174  0.37407455    -0.99300
Zr1701     Zr  0.00066351  0.49530401  0.33782788     2.21500
Zr1702     Zr  0.00224938  0.49895941  0.41932009     2.11100
O1703       O  0.95696196  0.46199260  0.39931652    -2.48000
O1704       O  0.95625668  0.46058189  0.35795674    -0.80000
O1705       O  0.96511690  0.03961842  0.39938804    -0.72200
O1706       O  0.53584988  0.44723492  0.35695076    -2.33200
O1707       O  0.96356071  0.03828037  0.35831746    -2.29400
O1708       O  0.53578367  0.44762424  0.39795594    -0.74000
H1709       H  0.56344753  0.04060749  0.40739456     0.78000
H1710       H  0.54975418  0.43080033  0.34766435     0.79100
H1711       H  0.93994016  0.44866098  0.40840403     0.81300
H1712       H  0.94899191  0.05415160  0.34980996     0.78900
H1713       H  0.60687856  0.41348604  0.38624643     0.42000
H1714       H  0.54957096  0.36292731  0.38749489     0.41000
H1715       H  0.91475276  0.39277057  0.38043559     0.40600
H1716       H  0.85105966  0.46940085  0.38344453     0.38600
H1717       H  0.88335231  0.06620162  0.36691922     0.41700
H1718       H  0.94350230  0.11775066  0.37184048     0.36500
H1719       H  0.58045964  0.09622597  0.36427098     0.42600
H1720       H  0.62966376  0.04363999  0.38839116     0.39000
H1721       H  0.87020138  0.44799294  0.36458166     0.43900
H1722       H  0.97704416  0.14656925  0.37567464     0.42700
H1723       H  0.65486161  0.01100963  0.38050641     0.42800
H1724       H  0.51910797  0.33827712  0.37513028     0.43100
C1725       C  0.50646588  0.28247871  0.51133769     0.01900
C1726       C  0.50336881  0.27921255  0.48907973     0.01800
C1727       C  0.50245018  0.24360205  0.47909575    -0.18700
C1728       C  0.50330231  0.21102697  0.49059204     0.01900
C1729       C  0.50327077  0.21402309  0.51293310     0.01800
C1730       C  0.50559868  0.24978339  0.52283753    -0.18700
H1731       H  0.50685098  0.25224003  0.53991127     0.03900
H1732       H  0.50138103  0.24118750  0.46200330     0.03900
C1733       C  0.78724479  0.49626821  0.51183570     0.01900
C1734       C  0.78670835  0.49687207  0.48967899     0.01800
C1735       C  0.75226640  0.49651697  0.47903190    -0.18700
C1736       C  0.71830271  0.49774431  0.49007701     0.01900
C1737       C  0.71910296  0.50056082  0.51237194     0.01800
C1738       C  0.75347208  0.49825959  0.52287425    -0.18700
H1739       H  0.75404637  0.49885386  0.53998064     0.03900
H1740       H  0.75192460  0.49577945  0.46192054     0.03900
C1741       C  0.99347694  0.20876126  0.26643329     0.86100
C1742       C  0.95730157  0.20818721  0.25326432    -0.54200
C1743       C  0.95432041  0.23740660  0.24033655     0.09000
C1744       C  0.48910264  0.25807646  0.24212465     0.19900
C1745       C  0.52552378  0.20441719  0.25008603    -0.54900
C1746       C  0.52311387  0.23349691  0.23698994     0.09100
C1747       C  0.99502737  0.24649838  0.27832898    -0.54400
C1748       C  0.49232401  0.26794726  0.26606203     0.09700
H1749       H  0.93564858  0.18634392  0.25425387     0.14200
H1750       H  0.98535000  0.28966162  0.23185409    -0.00100
H1751       H  0.55021928  0.18780128  0.25003592     0.14500
H1752       H  0.99800905  0.24964460  0.29536165     0.14300
C1753       C  0.98432900  0.37455607  0.30560203    -0.06600
C1754       C  0.51721847  0.36342999  0.29121847    -0.17700
C1755       C  0.51986217  0.33160853  0.27785728     0.10600
C1756       C  0.98732123  0.31356153  0.27623463    -0.06500
C1757       C  0.95540311  0.31884192  0.28885427    -0.17700
C1758       C  0.95370308  0.34871780  0.30362541     0.10700
S1759       S  0.56422529  0.32462815  0.26499075    -0.32700
S1760       S  0.91237118  0.35140746  0.31994442    -0.32700
H1761       H  0.91471571  0.39013127  0.32406250     0.28700
H1762       H  0.56336879  0.28564117  0.26578100     0.28700
H1763       H  0.54123293  0.38266848  0.29288632     0.19300
H1764       H  0.93250507  0.29818647  0.28805902     0.19300
C1765       C  0.00086399  0.11690913  0.30896812    -0.06600
C1766       C  0.97450680  0.14448381  0.31253917    -0.17700
C1767       C  0.97034290  0.17317053  0.29855619     0.10600
C1768       C  0.99456731  0.17565659  0.28087365    -0.06500
C1769       C  0.51825290  0.13724402  0.27581938    -0.17700
C1770       C  0.52261881  0.10884376  0.28992541     0.10700
S1771       S  0.93268425  0.20506278  0.30327463    -0.32700
S1772       S  0.55725795  0.07467467  0.28369467    -0.32700
H1773       H  0.56962840  0.07144125  0.30458546     0.28700
H1774       H  0.92620313  0.19668045  0.32445179     0.28700
H1775       H  0.95639584  0.14293302  0.32619045     0.19300
H1776       H  0.53461840  0.13567331  0.26157859     0.19300
C1777       C  0.51037795  0.11181398  0.45063349    -0.06600
C1778       C  0.47866771  0.11661753  0.46343258    -0.17700
C1779       C  0.47557291  0.14837400  0.47684476     0.10600
C1780       C  0.50558897  0.17505844  0.47833359    -0.06500
C1781       C  0.53806182  0.16910791  0.46631522    -0.17700
C1782       C  0.54078406  0.13790300  0.45257812     0.10700
S1783       S  0.43157001  0.15478963  0.49017325    -0.32700
S1784       S  0.58362587  0.13299364  0.43777465    -0.32700
H1785       H  0.58229424  0.09380735  0.43677391     0.28700
H1786       H  0.43100285  0.19338184  0.48738241     0.28700
H1787       H  0.45511362  0.09684954  0.46190907     0.19300
H1788       H  0.56125387  0.18940581  0.46736608     0.19300
C1789       C  0.99359029  0.37931440  0.44914443    -0.06600
C1790       C  0.52654441  0.36770016  0.45979825    -0.17700
C1791       C  0.53055957  0.33831799  0.47335518     0.10600
C1792       C  0.50076922  0.31180454  0.47550686    -0.06500
C1793       C  0.97046188  0.32148672  0.46377707    -0.17700
C1794       C  0.96587162  0.35040582  0.44997358     0.10700
S1795       S  0.57551864  0.33445483  0.48589706    -0.32700
S1796       S  0.92399357  0.34894205  0.43390837    -0.32700
H1797       H  0.92106137  0.38781422  0.43331074     0.28700
H1798       H  0.57569405  0.29536838  0.48380150     0.28700
H1799       H  0.54976784  0.38755353  0.45799135     0.19300
H1800       H  0.94902415  0.29941912  0.46427578     0.19300
C1801       C  0.62156828  0.48701500  0.44969974    -0.06600
C1802       C  0.62783638  0.01796676  0.46224295    -0.17700
C1803       C  0.65842839  0.02285770  0.47612087     0.10600
C1804       C  0.68320770  0.49456313  0.47753095    -0.06500
C1805       C  0.67613037  0.46120151  0.46569313    -0.17700
C1806       C  0.64577707  0.45716613  0.45175442     0.10700
S1807       S  0.66377406  0.06723989  0.49016062    -0.32700
S1808       S  0.63990056  0.41359892  0.43675682    -0.32700
H1809       H  0.60083330  0.41508660  0.43400592     0.28700
H1810       H  0.70303898  0.06957096  0.48811946     0.28700
H1811       H  0.60806121  0.04008305  0.46115888     0.19300
H1812       H  0.69499428  0.43836042  0.46700348     0.19300
C1813       C  0.82129631  0.50050389  0.47718760    -0.06600
C1814       C  0.82966539  0.03233030  0.46764152    -0.17700
C1815       C  0.85939549  0.03515134  0.45354909     0.10600
C1816       C  0.88388372  0.50948492  0.45104541    -0.06500
C1817       C  0.87878380  0.47705385  0.46237404    -0.17700
C1818       C  0.84718902  0.47179585  0.47495613     0.10700
S1819       S  0.86523927  0.07796430  0.43978796    -0.32700
S1820       S  0.83995713  0.42681976  0.48604886    -0.32700
H1821       H  0.80078980  0.42550026  0.48321269     0.28700
H1822       H  0.90365161  0.07492237  0.43535207     0.28700
H1823       H  0.81103779  0.05542488  0.46971418     0.19300
H1824       H  0.89791789  0.45442575  0.46003844     0.19300
C1825       C  0.62683355  0.50489324  0.55525958    -0.06600
C1826       C  0.65252763  0.03262988  0.55549224    -0.17700
C1827       C  0.68171375  0.03465035  0.54103910     0.10600
C1828       C  0.68523953  0.50517983  0.52551117    -0.06500
C1829       C  0.65671912  0.47733177  0.52433988    -0.17700
C1830       C  0.62761459  0.47683215  0.53906115     0.10700
S1831       S  0.71369420  0.07467641  0.54390985    -0.32700
S1832       S  0.59406540  0.43818834  0.53726506    -0.32700
H1833       H  0.59087261  0.43424623  0.55916352     0.28700
H1834       H  0.72785623  0.07335540  0.52329206     0.28700
H1835       H  0.65053219  0.05433383  0.56777816     0.19300
H1836       H  0.65829527  0.45460710  0.51266616     0.19300
C1837       C  0.82228760  0.49582910  0.52424997    -0.06600
C1838       C  0.85098302  0.02702868  0.52466450    -0.17700
C1839       C  0.88114254  0.03084917  0.53895853     0.10600
C1840       C  0.88135696  0.50434518  0.55356516    -0.06500
C1841       C  0.85730716  0.47275612  0.55346991    -0.17700
C1842       C  0.82809497  0.46794448  0.53890198     0.10700
S1843       S  0.91412879  0.06948905  0.53609229    -0.32700
S1844       S  0.79877405  0.42611809  0.54046784    -0.32700
H1845       H  0.78244185  0.42661534  0.52035384     0.28700
H1846       H  0.91950004  0.07715861  0.55782677     0.28700
H1847       H  0.84831165  0.04745934  0.51271532     0.19300
H1848       H  0.86116699  0.45175627  0.56501050     0.19300
C1849       C  0.50557377  0.12457992  0.55651658    -0.06600
C1850       C  0.97735766  0.15751936  0.55777503    -0.17700
C1851       C  0.97478458  0.18561663  0.54330730     0.10600
C1852       C  0.50135867  0.18113553  0.52665990    -0.06500
C1853       C  0.52891567  0.15408328  0.52488378    -0.17700
C1854       C  0.53118416  0.12581598  0.53947733     0.10700
S1855       S  0.93605875  0.21643853  0.54663181    -0.32700
S1856       S  0.56858817  0.09353041  0.53604138    -0.32700
H1857       H  0.57550046  0.08986394  0.55767252     0.28700
H1858       H  0.93366837  0.22601365  0.52545178     0.28700
H1859       H  0.95702446  0.15604296  0.57043066     0.19300
H1860       H  0.54986872  0.15587077  0.51259385     0.19300
C1861       C  0.00468369  0.39013401  0.55250136    -0.06600
C1862       C  0.53763968  0.35748950  0.55223138    -0.17700
C1863       C  0.53915617  0.32638997  0.53837876     0.10600
C1864       C  0.00912468  0.32666386  0.52472797    -0.06500
C1865       C  0.97936727  0.35119224  0.52315328    -0.17700
C1866       C  0.97662147  0.38255889  0.53697752     0.10700
S1867       S  0.57887154  0.29700136  0.54125360    -0.32700
S1868       S  0.93523911  0.40979597  0.53505335    -0.32700
H1869       H  0.93245528  0.41923023  0.55669397     0.28700
H1870       H  0.57767081  0.28015784  0.52092180     0.28700
H1871       H  0.55947999  0.36206233  0.56406722     0.19300
H1872       H  0.95693956  0.34467522  0.51191443     0.19300
C1873       C  0.55187864  0.24007665  0.22016177    -0.06600
C1874       C  0.56343924  0.27666460  0.21556551    -0.17700
C1875       C  0.59336811  0.28383227  0.20169946     0.10600
C1876       C  0.61340466  0.25371654  0.19284487    -0.06500
C1877       C  0.60062840  0.21739167  0.19645796    -0.17700
C1878       C  0.56960980  0.21019103  0.20922406     0.10700
S1879       S  0.60354841  0.33184171  0.19584453    -0.32700
S1880       S  0.55245127  0.16235084  0.20900077    -0.32700
H1881       H  0.51455999  0.17132481  0.21093648     0.28700
H1882       H  0.62666260  0.32583127  0.17825137     0.28700
H1883       H  0.54912500  0.29996486  0.22273213     0.19300
H1884       H  0.61385418  0.19427487  0.18833438     0.19300
C1885       C  0.92179320  0.24063378  0.22573044    -0.06600
C1886       C  0.90240278  0.27406815  0.22575892    -0.17700
C1887       C  0.87173088  0.27841962  0.21216442     0.10600
C1888       C  0.86022752  0.24864800  0.19809603    -0.06500
C1889       C  0.87923424  0.21519631  0.19830359    -0.17700
C1890       C  0.90966510  0.21072163  0.21187880     0.10700
S1891       S  0.84928311  0.32274928  0.21337389    -0.32700
S1892       S  0.93400696  0.16736874  0.21019343    -0.32700
H1893       H  0.91012012  0.14854104  0.19533521     0.28700
H1894       H  0.83470986  0.32123261  0.19277336     0.28700
H1895       H  0.91127520  0.29699671  0.23643403     0.19300
H1896       H  0.87051854  0.19265347  0.18734517     0.19300
C1897       C  0.73269317  0.06546100  0.02463369    -0.06600
C1898       C  0.76326878  0.09127982  0.02438710    -0.17700
C1899       C  0.76525298  0.12269768  0.03834804     0.10600
C1900       C  0.73583969  0.12883165  0.05288663    -0.06500
C1901       C  0.70483533  0.10371218  0.05265366    -0.17700
C1902       C  0.70275036  0.07248213  0.03872612     0.10700
S1903       S  0.80714936  0.15227352  0.03776486    -0.32700
S1904       S  0.66134897  0.04235800  0.04030822    -0.32700
H1905       H  0.66350160  0.02576624  0.01997883     0.28700
H1906       H  0.80864464  0.16090240  0.05956766     0.28700
H1907       H  0.78679758  0.08585702  0.01406637     0.19300
H1908       H  0.68206568  0.10827928  0.06366666     0.19300
C1909       C  0.74310664  0.37235053  0.05480834    -0.06600
C1910       C  0.77673245  0.38491959  0.04568742    -0.17700
C1911       C  0.77732877  0.41325335  0.03121411     0.10600
C1912       C  0.74348441  0.42964549  0.02565905    -0.06500
C1913       C  0.70978313  0.41729669  0.03487179    -0.17700
C1914       C  0.70913657  0.38871050  0.04925042     0.10700
S1915       S  0.82237823  0.42865764  0.02140765    -0.32700
S1916       S  0.66432618  0.37590557  0.06057548    -0.32700
H1917       H  0.67366933  0.34070979  0.06737340     0.28700
H1918       H  0.81455133  0.46675564  0.02204630     0.28700
H1919       H  0.80301884  0.37400056  0.05069676     0.19300
H1920       H  0.68385210  0.43048971  0.03105278     0.19300
C1921       C  0.73805502  0.06073124  0.97709543    -0.06600
C1922       C  0.77277287  0.07369293  0.96941906    -0.17700
C1923       C  0.77505465  0.10249574  0.95524522     0.10600
C1924       C  0.74180905  0.11865130  0.94842753    -0.06500
C1925       C  0.70712069  0.10578340  0.95616030    -0.17700
C1926       C  0.70484176  0.07707439  0.97039907     0.10700
S1927       S  0.82101053  0.11572979  0.94561978    -0.32700
S1928       S  0.65871888  0.06163739  0.97864976    -0.32700
H1929       H  0.66673500  0.02377486  0.97976642     0.28700
H1930       H  0.81241507  0.15165439  0.93973924     0.28700
H1931       H  0.79825940  0.06064894  0.97418355     0.19300
H1932       H  0.68146001  0.11674091  0.95023137     0.19300
C1933       C  0.74991127  0.42406559  0.97797526    -0.06600
C1934       C  0.71961824  0.39801264  0.97849567    -0.17700
C1935       C  0.71721965  0.36702262  0.96430591     0.10600
C1936       C  0.74584106  0.36166080  0.94920786    -0.06500
C1937       C  0.77674639  0.38684428  0.94920119    -0.17700
C1938       C  0.77940038  0.41756435  0.96346231     0.10700
S1939       S  0.67578404  0.33690791  0.96538213    -0.32700
S1940       S  0.82101376  0.44744726  0.96181765    -0.32700
H1941       H  0.81811752  0.46584784  0.98161869     0.28700
H1942       H  0.67297961  0.32918130  0.94352693     0.28700
H1943       H  0.69651791  0.40299491  0.98920071     0.19300
H1944       H  0.79899883  0.38266443  0.93780764     0.19300
C1945       C  0.00556569  0.13774453  0.69900050    -0.06600
C1946       C  0.97092999  0.14270840  0.70897739    -0.17700
C1947       C  0.96515492  0.17311869  0.72290590     0.10600
C1948       C  0.99534644  0.19841726  0.72777188    -0.06500
C1949       C  0.51412056  0.15769833  0.73132469    -0.17700
C1950       C  0.51876939  0.12688523  0.71739586     0.10700
S1951       S  0.91804284  0.17910010  0.73246312    -0.32700
S1952       S  0.55878371  0.09853604  0.72137124    -0.32700
H1953       H  0.56704310  0.09251697  0.69987129     0.28700
H1954       H  0.91980593  0.21816504  0.73438504     0.28700
H1955       H  0.94734872  0.12438856  0.70462342     0.19300
H1956       H  0.53519298  0.16411262  0.74333090     0.19300
C1957       C  0.00224406  0.39330092  0.69485924    -0.06600
C1958       C  0.98422035  0.39967070  0.71428005    -0.17700
C1959       C  0.98248789  0.37239846  0.72962772     0.10600
C1960       C  0.99611480  0.33634450  0.72471629    -0.06500
C1961       C  0.51685580  0.31641391  0.70378746    -0.17700
C1962       C  0.52101980  0.34453714  0.68931110     0.10700
S1963       S  0.96854775  0.38671417  0.75598586    -0.32700
S1964       S  0.54779198  0.33507291  0.66559269    -0.32700
H1965       H  0.54993876  0.29633430  0.66738023     0.28700
H1966       H  0.95420541  0.42131345  0.75110160     0.28700
H1967       H  0.97216853  0.42650522  0.71760959     0.19300
H1968       H  0.52937069  0.29003666  0.70001619     0.19300
C1969       C  0.56214491  0.24946909  0.77867574    -0.06600
C1970       C  0.57130272  0.21278217  0.78314660    -0.17700
C1971       C  0.60098418  0.20536574  0.79681976     0.10600
C1972       C  0.62335359  0.23526440  0.80562802    -0.06500
C1973       C  0.61449530  0.27171393  0.80122711    -0.17700
C1974       C  0.58366583  0.27933390  0.78866664     0.10700
S1975       S  0.60756458  0.15731317  0.80279034    -0.32700
S1976       S  0.57223055  0.32791361  0.78821662    -0.32700
H1977       H  0.53324937  0.32205949  0.78665022     0.28700
H1978       H  0.64140600  0.16203681  0.81405600     0.28700
H1979       H  0.55509798  0.18950527  0.77614773     0.19300
H1980       H  0.63045731  0.29474646  0.80883594     0.19300
C1981       C  0.93155537  0.26194545  0.78335592    -0.06600
C1982       C  0.91550968  0.22568737  0.78394161    -0.17700
C1983       C  0.88441429  0.21750516  0.79675818     0.10600
C1984       C  0.86938590  0.24625787  0.80964861    -0.06500
C1985       C  0.88621774  0.28198561  0.80970431    -0.17700
C1986       C  0.91717217  0.29000126  0.79706628     0.10700
S1987       S  0.86611167  0.16992275  0.79594518    -0.32700
S1988       S  0.93888382  0.33569114  0.80076012    -0.32700
H1989       H  0.97537492  0.32254555  0.79907696     0.28700
H1990       H  0.84031716  0.17257163  0.81255407     0.28700
H1991       H  0.92707412  0.20351974  0.77427620     0.19300
H1992       H  0.87569174  0.30375391  0.82021876     0.19300
C1993       C  0.81863019  0.48402903  0.72298538    -0.06600
C1994       C  0.84675019  0.01372533  0.72732946    -0.17700
C1995       C  0.87794805  0.02017607  0.71435552     0.10600
C1996       C  0.87827905  0.49794349  0.69491766    -0.06500
C1997       C  0.85483518  0.46600123  0.69209010    -0.17700
C1998       C  0.82526158  0.45869887  0.70589122     0.10700
S1999       S  0.90912476  0.05894591  0.72154920    -0.32700
S2000       S  0.79654188  0.41710808  0.70039403    -0.32700
H2001       H  0.76262514  0.43205072  0.70743127     0.28700
H2002       H  0.91447977  0.06933555  0.70063998     0.28700
H2003       H  0.84294121  0.03153788  0.74129183     0.19300
H2004       H  0.85949708  0.44662255  0.67889208     0.19300
C2005       C  0.62814202  0.50527053  0.69793578    -0.06600
C2006       C  0.66553058  0.51289619  0.69180826    -0.17700
C2007       C  0.69609558  0.50685526  0.70504443     0.10600
C2008       C  0.68950530  0.49434892  0.72559426    -0.06500
C2009       C  0.65277618  0.98696261  0.73136165    -0.15700
C2010       C  0.62227599  0.99018481  0.71761807     0.10700
S2011       S  0.74284805  0.51144000  0.69426762    -0.32700
S2012       S  0.57692577  0.97456494  0.72696410    -0.32700
H2013       H  0.57061878  0.94934976  0.70966840     0.28700
H2014       H  0.73319223  0.52756430  0.67525658     0.28700
H2015       H  0.67113622  0.52191948  0.67603253     0.19300
H2016       H  0.64732930  0.97690319  0.74697029     0.19300
C2017       C  0.75874275  0.11162013  0.80576907    -0.06600
C2018       C  0.78735030  0.08649036  0.80874095    -0.17700
C2019       C  0.79180899  0.05583278  0.79488566     0.10600
C2020       C  0.76586442  0.04883078  0.77822490    -0.06500
C2021       C  0.73910494  0.07537467  0.77420795    -0.17700
C2022       C  0.73559871  0.10706947  0.78765419     0.10700
S2023       S  0.83105869  0.02667363  0.79936882    -0.32700
S2024       S  0.69953033  0.13950581  0.78241184    -0.32700
H2025       H  0.69049100  0.12539437  0.76195461     0.28700
H2026       H  0.83395831  0.01293174  0.77840049     0.28700
H2027       H  0.80633657  0.09072533  0.82205747     0.19300
H2028       H  0.71940706  0.07005419  0.76132854     0.19300
C2029       C  0.74648249  0.40986400  0.77812924    -0.06600
C2030       C  0.77025180  0.37933719  0.77571290    -0.17700
C2031       C  0.76865802  0.34989457  0.78940257     0.10600
C2032       C  0.74277712  0.35030844  0.80614463    -0.06500
C2033       C  0.71729934  0.37902830  0.80787184    -0.17700
C2034       C  0.71821867  0.40829106  0.79393921     0.10700
S2035       S  0.80267885  0.31430021  0.78574634    -0.32700
S2036       S  0.68348081  0.44371187  0.79718763    -0.32700
H2037       H  0.66133677  0.42601870  0.81241532     0.28700
H2038       H  0.77516817  0.28622975  0.78096577     0.28700
H2039       H  0.79073132  0.37759464  0.76334003     0.19300
H2040       H  0.69687747  0.37872518  0.82048545     0.19300
C2041       C  0.62353438  0.24903760  0.05168506    -0.06600
C2042       C  0.61932327  0.27878929  0.03834223    -0.17700
C2043       C  0.58832970  0.27970113  0.02478344     0.10600
C2044       C  0.56202445  0.24936515  0.02391049    -0.06500
C2045       C  0.56765800  0.21875089  0.03644088    -0.17700
C2046       C  0.59794074  0.21831546  0.05029863     0.10700
S2047       S  0.58264512  0.32124839  0.01031426    -0.32700
S2048       S  0.60209392  0.17810633  0.06613085    -0.32700
H2049       H  0.64154938  0.17861539  0.06582258     0.28700
H2050       H  0.54327654  0.32076750  0.01169904     0.28700
H2051       H  0.63895100  0.30242635  0.03942533     0.19300
H2052       H  0.54775173  0.19524414  0.03569683     0.19300
C2053       C  0.92634205  0.24760037  0.02708086    -0.06600
C2054       C  0.89684370  0.27198726  0.02496471    -0.17700
C2055       C  0.86666433  0.27176378  0.03892944     0.10600
C2056       C  0.86591880  0.24696454  0.05565201    -0.06500
C2057       C  0.89488864  0.22192387  0.05746652    -0.17700
C2058       C  0.92468530  0.22147537  0.04324229     0.10700
S2059       S  0.83165391  0.30583975  0.03552152    -0.32700
S2060       S  0.95956948  0.18691681  0.04687163    -0.32700
H2061       H  0.97127365  0.18403478  0.02577099     0.28700
H2062       H  0.82987867  0.31583683  0.05715782     0.28700
H2063       H  0.89815812  0.29266126  0.01301202     0.19300
H2064       H  0.89421436  0.20239903  0.07005484     0.19300
C2065       C  0.61995297  0.24126841  0.94741211    -0.06600
C2066       C  0.59242777  0.26741425  0.94439873    -0.17700
C2067       C  0.56325448  0.27201730  0.95874342     0.10600
C2068       C  0.56002459  0.24830091  0.97598669    -0.06500
C2069       C  0.58833285  0.22289138  0.97933143    -0.17700
C2070       C  0.61866265  0.21977063  0.96554326     0.10700
S2071       S  0.53157661  0.30902660  0.95409593    -0.32700
S2072       S  0.65351069  0.18655646  0.97140761    -0.32700
H2073       H  0.65891257  0.17525239  0.95023244     0.28700
H2074       H  0.02454089  0.32306293  0.97591705     0.28700
H2075       H  0.59408591  0.28495896  0.93090041     0.19300
H2076       H  0.58610429  0.20416757  0.99224216     0.19300
C2077       C  0.92273175  0.25014604  0.97928361    -0.06600
C2078       C  0.91510084  0.28184714  0.96797635    -0.17700
C2079       C  0.88431633  0.28225463  0.95434575     0.10600
C2080       C  0.86074004  0.25014441  0.95172020    -0.06500
C2081       C  0.86691477  0.21926433  0.96393793    -0.17700
C2082       C  0.89804525  0.21860910  0.97740125     0.10700
S2083       S  0.87674920  0.32433204  0.94056008    -0.32700
S2084       S  0.90583782  0.17600232  0.99054105    -0.32700
H2085       H  0.94522526  0.17906942  0.99023987     0.28700
H2086       H  0.83765699  0.31890716  0.93824054     0.28700
H2087       H  0.93375095  0.30626611  0.96952651     0.19300
H2088       H  0.84875139  0.19463848  0.96200309     0.19300
C2089       C  0.81230112  0.51043347  0.28246911    -0.06600
C2090       C  0.83875763  0.48287808  0.27868369    -0.17700
C2091       C  0.87042005  0.48039620  0.29176472     0.10600
C2092       C  0.87587569  0.50588358  0.30917805    -0.06500
C2093       C  0.84030488  0.02287428  0.31520876    -0.17700
C2094       C  0.80947373  0.02640411  0.30180003     0.10700
S2095       S  0.90134732  0.44269247  0.28634084    -0.32700
S2096       S  0.77185019  0.05494778  0.31138031    -0.32700
H2097       H  0.74363956  0.04109228  0.29749408     0.28700
H2098       H  0.93277712  0.46648578  0.28319213     0.28700
H2099       H  0.83514775  0.46365053  0.26517369     0.19300
H2100       H  0.84001476  0.03729194  0.33053687     0.19300
C2101       C  0.62577086  0.48422456  0.30772778    -0.06600
C2102       C  0.61676717  0.49260805  0.28688379    -0.17700
C2103       C  0.64452800  0.49657889  0.27139027     0.10600
C2104       C  0.68291835  0.49359979  0.27676527    -0.06500
C2105       C  0.68926842  0.97836182  0.29452368    -0.17700
C2106       C  0.66169045  0.97304000  0.30997357     0.10700
S2107       S  0.62878911  0.50451019  0.24494721    -0.32700
S2108       S  0.67664952  0.95569857  0.33493638    -0.32700
H2109       H  0.71560769  0.96063446  0.33204504     0.28700
H2110       H  0.65878364  0.48675043  0.23480518     0.28700
H2111       H  0.58779305  0.49644868  0.28253879     0.19300
H2112       H  0.71841105  0.97463127  0.29843843     0.19300
C2113       C  0.74436617  0.07833251  0.22379660    -0.06600
C2114       C  0.70961341  0.08391465  0.21374616    -0.17700
C2115       C  0.70482390  0.11259717  0.19983291     0.10600
C2116       C  0.73552557  0.13653214  0.19528871    -0.06500
C2117       C  0.77035755  0.13092607  0.20458456    -0.17700
C2118       C  0.77570486  0.10132588  0.21783447     0.10700
S2119       S  0.65892979  0.11654497  0.18818855    -0.32700
S2120       S  0.82405365  0.09297331  0.22397634    -0.32700
H2121       H  0.82049668  0.05417606  0.22054049     0.28700
H2122       H  0.66333884  0.15384984  0.18272589     0.28700
H2123       H  0.68581395  0.06511033  0.21616719     0.19300
H2124       H  0.79439300  0.14823762  0.20020586     0.19300
C2125       C  0.76139583  0.44137257  0.22549071    -0.06600
C2126       C  0.73488402  0.41270601  0.22926609    -0.17700
C2127       C  0.73199534  0.38073647  0.21583766     0.10600
C2128       C  0.75581771  0.37765558  0.19804841    -0.06500
C2129       C  0.78463604  0.40466616  0.19562446    -0.17700
C2130       C  0.78831216  0.43587567  0.20947733     0.10700
S2131       S  0.69597098  0.34632139  0.22161231    -0.32700
S2132       S  0.82802255  0.46794265  0.20698610    -0.32700
H2133       H  0.84479044  0.94987604  0.18862539     0.28700
H2134       H  0.68522591  0.33918789  0.20050805     0.28700
H2135       H  0.71474611  0.41627140  0.24190316     0.19300
H2136       H  0.80415259  0.40136670  0.18267307     0.19300
C2137       C  0.74911439  0.54562422  0.23873280     0.86100
C2138       C  0.71349546  0.53697221  0.25166563    -0.54200
C2139       C  0.71165698  0.00222940  0.26042503     0.09000
C2140       C  0.75008810  0.98343623  0.25884546     0.19900
C2141       C  0.78009148  0.54702747  0.25568579    -0.54900
C2142       C  0.77927581  0.01390793  0.26597296     0.09100
C2143       C  0.75522989  0.51001698  0.22528040    -0.54400
C2144       C  0.75710697  0.97765760  0.23515651     0.09700
H2145       H  0.69053158  0.55584408  0.25352291     0.14200
H2146       H  0.75182632  0.95746475  0.26764606    -0.00100
H2147       H  0.79865321  0.57107378  0.25900772     0.14500
H2148       H  0.75786884  0.00955318  0.20714434     0.14300
C2149       C  0.95724318  0.74247595  0.99091825     0.01900
C2150       C  0.95851708  0.74219661  0.01318720     0.01800
C2151       C  0.49473808  0.74656369  0.02326554    -0.18700
C2152       C  0.52788839  0.74781896  0.01154112     0.01900
C2153       C  0.52606977  0.74662554  0.98930558     0.01800
C2154       C  0.49084227  0.74338222  0.97945197    -0.18700
H2155       H  0.48917602  0.74190992  0.96236573     0.03900
H2156       H  0.49639667  0.74796578  0.04035700     0.03900
C2157       C  0.75327458  0.94442080  0.76398947     0.86100
C2158       C  0.71902336  0.95143791  0.75014767    -0.54200
C2159       C  0.72137126  0.98355355  0.73922314     0.09000
C2160       C  0.75771577  0.50538445  0.74367186     0.19900
C2161       C  0.78660869  0.94569388  0.74843177    -0.54900
C2162       C  0.78950048  0.97766024  0.73755644     0.09100
C2163       C  0.75940229  0.97997275  0.77785896    -0.54400
C2164       C  0.76080610  0.51181803  0.76761719     0.09700
H2165       H  0.69501760  0.93203409  0.74894575     0.14200
H2166       H  0.76041364  0.53170417  0.73517813    -0.00100
H2167       H  0.80714904  0.92448932  0.74610600     0.14500
H2168       H  0.76071114  0.97992874  0.79496719     0.14300
C2169       C  0.49543424  0.78870711  0.73728886     0.86100
C2170       C  0.96412751  0.80150630  0.75560188    -0.54200
C2171       C  0.96378572  0.77071450  0.76765842     0.09000
C2172       C  0.49459109  0.73207593  0.76207092     0.19900
C2173       C  0.53133174  0.78554902  0.75021932    -0.54900
C2174       C  0.53112361  0.75695533  0.76381993     0.09100
C2175       C  0.49029686  0.75048141  0.72577198    -0.54400
C2176       C  0.49023204  0.72098116  0.73847070     0.09700
H2177       H  0.94143746  0.82082081  0.75626270     0.14200
H2178       H  0.49344679  0.70802856  0.77249259    -0.00100
H2179       H  0.55554140  0.80390782  0.74784819     0.14500
H2180       H  0.48584535  0.74639561  0.70891175     0.14300
C2181       C  0.73872306  0.96131655  0.01249789     0.01900
C2182       C  0.74155909  0.95928284  0.99022103     0.01800
C2183       C  0.74655304  0.49301455  0.97904884    -0.18700
C2184       C  0.74234286  0.52788260  0.98936247     0.01900
C2185       C  0.73786531  0.53031395  0.01148850     0.01800
C2186       C  0.73861857  0.49743999  0.02268104    -0.18700
H2187       H  0.73624726  0.49903800  0.03972812     0.03900
H2188       H  0.74907906  0.49146416  0.96200333     0.03900
O2189       O  0.84553280  0.74515210  0.91508635    -0.75700
O2190       O  0.79780646  0.73974110  0.93887727    -0.54600
C2191       C  0.83260296  0.74347129  0.93396874     0.78000
O2192       O  0.74028259  0.83637654  0.84198877    -0.60300
O2193       O  0.74513792  0.78926532  0.81706402    -0.53400
C2194       C  0.74282253  0.82375303  0.82273640     0.70000
O2195       O  0.74391452  0.84027391  0.91367460    -0.74900
O2196       O  0.74103152  0.79560358  0.93825789    -0.55400
C2197       C  0.74296275  0.82976882  0.93286283     0.76000
O2198       O  0.85057548  0.74619935  0.84435636    -0.60000
O2199       O  0.80644550  0.73845278  0.81824009    -0.53100
C2200       C  0.84044298  0.74399287  0.82488672     0.72600
Zr2201     Zr  0.82215499  0.74123995  0.87891993     2.54700
O2202       O  0.87003140  0.79111147  0.88157993    -0.80600
O2203       O  0.86905050  0.69342159  0.87819443    -0.94000
Zr2204     Zr  0.73971691  0.81287456  0.87776584     2.64700
O2205       O  0.78093402  0.86830879  0.87881040    -0.99000
O2206       O  0.68376756  0.84998404  0.87889125    -0.81000
O2207       O  0.78041511  0.77865293  0.89872943    -0.84400
O2208       O  0.78294575  0.77708860  0.85801711    -2.19100
O2209       O  0.75729313  0.63150167  0.84066938    -0.67800
O2210       O  0.75207568  0.67567430  0.81608044    -0.52300
C2211       C  0.75677991  0.64212747  0.82152309     0.71000
O2212       O  0.63714573  0.73270112  0.91090407    -0.60700
O2213       O  0.68236806  0.73599468  0.93654352    -0.52700
C2214       C  0.64802631  0.73515504  0.93031071     0.72800
O2215       O  0.64058630  0.72778779  0.83998876    -0.72100
O2216       O  0.68843488  0.73170615  0.81612747    -0.50700
C2217       C  0.65342529  0.73010641  0.82115323     0.74200
O2218       O  0.74853838  0.63292993  0.91167745    -0.67400
O2219       O  0.74088095  0.67966266  0.93666496    -0.54600
C2220       C  0.74502147  0.64540063  0.93083195     0.72600
Zr2221     Zr  0.74731717  0.65720858  0.87635965     2.77500
O2222       O  0.69723645  0.60936294  0.87414135    -0.98200
O2223       O  0.79408387  0.60942099  0.87734502    -0.79000
Zr2224     Zr  0.66525936  0.72850788  0.87579064     2.70100
O2225       O  0.62171199  0.67479439  0.87490911    -0.80200
O2226       O  0.61511656  0.77284628  0.87509255    -0.99300
Zr2227     Zr  0.74129114  0.73684785  0.91776686     2.21500
Zr2228     Zr  0.74647353  0.73328612  0.83657416     2.11100
O2229       O  0.70677117  0.69133910  0.85532127    -2.48000
O2230       O  0.70446038  0.69283377  0.89674324    -0.80000
O2231       O  0.78700683  0.69773797  0.85712715    -0.72200
O2232       O  0.70074212  0.77240627  0.89723289    -2.33200
O2233       O  0.78406776  0.69954000  0.89807702    -2.29400
O2234       O  0.70336620  0.77002968  0.85623604    -0.74000
H2235       H  0.79808757  0.79348401  0.84951752     0.78000
H2236       H  0.68448744  0.78726924  0.90607825     0.79100
H2237       H  0.69276717  0.67477722  0.84562159     0.81300
H2238       H  0.79963535  0.68594692  0.90724545     0.78900
H2239       H  0.67584742  0.85123619  0.86397798     0.42000
H2240       H  0.61994969  0.78735175  0.86237651     0.41000
H2241       H  0.62696842  0.66194387  0.88805414     0.40600
H2242       H  0.68286989  0.61303375  0.88736118     0.38600
H2243       H  0.81169382  0.61807573  0.88873755     0.41700
H2244       H  0.86590822  0.68047374  0.86419755     0.36500
H2245       H  0.85658707  0.81380140  0.87821909     0.42600
H2246       H  0.80043352  0.86302435  0.86811428     0.39000
H2247       H  0.68015511  0.61711925  0.86293829     0.43900
H2248       H  0.85984724  0.67497475  0.88830817     0.42700
H2249       H  0.76581417  0.88786935  0.87272547     0.42800
H2250       H  0.59217073  0.75749282  0.87165304     0.43100
O2251       O  0.84319504  0.75001723  0.16226705    -0.75700
O2252       O  0.79624211  0.75460175  0.18664806    -0.54600
C2253       C  0.83096370  0.75168117  0.18133097     0.78000
O2254       O  0.74252592  0.85615204  0.09046199    -0.60300
O2255       O  0.74598583  0.80896720  0.06534850    -0.53400
C2256       C  0.74356321  0.84348339  0.07119906     0.70000
O2257       O  0.75261921  0.85823129  0.16163717    -0.74900
O2258       O  0.74609568  0.81377927  0.18618674    -0.55400
C2259       C  0.75140827  0.84758809  0.18077407     0.76000
O2260       O  0.84686279  0.74576769  0.09118629    -0.60000
O2261       O  0.80184023  0.74789004  0.06567709    -0.53100
C2262       C  0.83598162  0.74576338  0.07181917     0.72600
Zr2263     Zr  0.81925974  0.75073226  0.12629879     2.54700
O2264       O  0.87037942  0.79744989  0.12767026    -0.80600
O2265       O  0.86228382  0.69947300  0.12647187    -0.94000
Zr2266     Zr  0.74664709  0.83170063  0.12575523     2.64700
O2267       O  0.79982455  0.87600766  0.12503686    -0.99000
O2268       O  0.70227927  0.88168321  0.12861739    -0.81000
O2269       O  0.78221443  0.79241020  0.14654495    -0.84400
O2270       O  0.78505417  0.79123358  0.10543932    -2.19100
O2271       O  0.73522391  0.64774662  0.08859618    -0.67800
O2272       O  0.74156241  0.69256175  0.06418951    -0.52300
C2273       C  0.73811053  0.65839438  0.06947820     0.71000
O2274       O  0.63301741  0.75450057  0.15759105    -0.60700
O2275       O  0.67720223  0.75744317  0.18382967    -0.52700
C2276       C  0.64289933  0.75565866  0.17707759     0.72800
O2277       O  0.63940169  0.75247305  0.08709204    -0.72100
O2278       O  0.68732498  0.75224425  0.06321673    -0.50700
C2279       C  0.65246314  0.75155104  0.06818024     0.74200
O2280       O  0.73598427  0.65113425  0.15977696    -0.67400
O2281       O  0.73773686  0.69860553  0.18492918    -0.54600
C2282       C  0.73739868  0.66397462  0.17901495     0.72600
Zr2283     Zr  0.73524792  0.67569099  0.12442667     2.77500
O2284       O  0.68049416  0.63333335  0.12413313    -0.98200
O2285       O  0.78056799  0.62645880  0.12405092    -0.79000
Zr2286     Zr  0.66281229  0.75691588  0.12332712     2.70100
O2287       O  0.60795692  0.71474285  0.12101418    -0.80200
O2288       O  0.62340773  0.81089088  0.12255042    -0.99300
Zr2289     Zr  0.73840846  0.75570686  0.16592286     2.21500
Zr2290     Zr  0.74341948  0.75169124  0.08442534     2.11100
O2291       O  0.69961637  0.71457222  0.10349678    -2.48000
O2292       O  0.69698160  0.71661956  0.14452815    -0.80000
O2293       O  0.77902706  0.71142497  0.10486626    -0.72200
O2294       O  0.70262980  0.79611233  0.14533665    -2.33200
O2295       O  0.77645143  0.71407550  0.14577760    -2.29400
O2296       O  0.70539184  0.79391226  0.10397610    -0.74000
H2297       H  0.80186091  0.80551168  0.09670085     0.78000
H2298       H  0.68789684  0.81234952  0.15428572     0.79100
H2299       H  0.68375895  0.69916624  0.09411817     0.81300
H2300       H  0.79061588  0.69877781  0.15481421     0.78900
H2301       H  0.67735654  0.86880974  0.12936619     0.42000
H2302       H  0.59934511  0.80103505  0.11639656     0.41000
H2303       H  0.61834268  0.68981733  0.11828516     0.40600
H2304       H  0.68993049  0.60982143  0.12938791     0.38600
H2305       H  0.79785986  0.63327353  0.13592796     0.41700
H2306       H  0.85936136  0.68868057  0.14051163     0.36500
H2307       H  0.86598188  0.81255370  0.14077261     0.42600
H2308       H  0.81774407  0.86700520  0.13547480     0.39000
H2309       H  0.66447068  0.64313338  0.13567181     0.43900
H2310       H  0.88760014  0.71170529  0.12683497     0.42700
H2311       H  0.81195261  0.87114779  0.11122445     0.42800
H2312       H  0.61750296  0.81698122  0.13750582     0.43100
O2313       O  0.60960600  0.00462952  0.66125082    -0.75700
O2314       O  0.56380052  0.00453433  0.68610638    -0.54600
C2315       C  0.59849974  0.00425328  0.68054984     0.78000
O2316       O  0.00044009  0.61679750  0.59118971    -0.60300
O2317       O  0.00298594  0.57004931  0.56577966    -0.53400
C2318       C  0.00148653  0.60454298  0.57182210     0.70000
O2319       O  0.00371300  0.61922700  0.66254387    -0.74900
O2320       O  0.00125230  0.57376931  0.68678143    -0.55400
C2321       C  0.00275995  0.60807541  0.68157578     0.76000
O2322       O  0.60899758  0.00412185  0.59001145    -0.60000
O2323       O  0.56268286  0.00189974  0.56498462    -0.53100
C2324       C  0.59822432  0.50500198  0.57182050     0.72600
Zr2325     Zr  0.58382934  0.00580317  0.62567248     2.54700
O2326       O  0.63236945  0.55542967  0.62793011    -0.80600
O2327       O  0.63416253  0.96156012  0.62441150    -0.94000
Zr2328     Zr  0.00204975  0.59210983  0.62662856     2.64700
O2329       O  0.56045896  0.62326019  0.62988943    -0.99000
O2330       O  0.95242283  0.63712182  0.62764288    -0.81000
O2331       O  0.54483384  0.54380921  0.64813969    -0.84400
O2332       O  0.54539071  0.54454218  0.60654735    -2.19100
O2333       O  0.00654101  0.90811106  0.58997259    -0.67800
O2334       O  0.00367494  0.95254345  0.56535061    -0.52300
C2335       C  0.00486878  0.91847848  0.57080165     0.71000
O2336       O  0.90238667  0.00349773  0.66107779    -0.60700
O2337       O  0.94768266  0.00919066  0.68661297    -0.52700
C2338       C  0.91326381  0.00399653  0.68040506     0.72800
O2339       O  0.90181540  0.00904427  0.59117735    -0.72100
O2340       O  0.94430168  0.51115355  0.56471688    -0.50700
C2341       C  0.91300473  0.00909023  0.57190755     0.74200
O2342       O  0.00454788  0.91179872  0.66125996    -0.67400
O2343       O  0.00764931  0.95833448  0.68682423    -0.54600
C2344       C  0.00653174  0.92377423  0.68068685     0.72600
Zr2345     Zr  0.00582095  0.93580972  0.62571053     2.77500
O2346       O  0.95580255  0.88797420  0.62337331    -0.98200
O2347       O  0.55835549  0.88402378  0.62204102    -0.79000
Zr2348     Zr  0.92891615  0.01271487  0.62649613     2.70100
O2349       O  0.87564590  0.96864563  0.62394637    -0.80200
O2350       O  0.88090984  0.56400323  0.62698380    -0.99300
Zr2351     Zr  0.00748442  0.01519142  0.66760524     2.21500
Zr2352     Zr  0.00620460  0.01158408  0.58564233     2.11100
O2353       O  0.96615417  0.97238493  0.60568385    -2.48000
O2354       O  0.96697943  0.97448390  0.64664750    -0.80000
O2355       O  0.54524522  0.96547251  0.60376127    -0.72200
O2356       O  0.96191953  0.55302773  0.64664681    -2.33200
O2357       O  0.54540043  0.96410708  0.64487470    -2.29400
O2358       O  0.96224400  0.55213674  0.60513493    -0.74000
H2359       H  0.56075058  0.56051065  0.59792372     0.78000
H2360       H  0.94657959  0.56785907  0.65601458     0.79100
H2361       H  0.95025998  0.95629627  0.59664196     0.81300
H2362       H  0.56069814  0.94897464  0.65342762     0.78900
H2363       H  0.96160093  0.65747971  0.61872889     0.42000
H2364       H  0.88737870  0.57805139  0.64030627     0.41000
H2365       H  0.88709878  0.94405330  0.62189009     0.40600
H2366       H  0.96778791  0.86496889  0.62761529     0.38600
H2367       H  0.57368092  0.89202674  0.60992661     0.41700
H2368       H  0.62702091  0.94292430  0.63488494     0.36500
H2369       H  0.62052025  0.57701009  0.62175590     0.42600
H2370       H  0.56339092  0.63217663  0.61540492     0.39000
H2371       H  0.93869366  0.89440753  0.63514050     0.43900
H2372       H  0.65613409  0.97545511  0.63075679     0.42700
H2373       H  0.55218551  0.64526873  0.63830445     0.42800
H2374       H  0.88961648  0.58054242  0.61575111     0.43100
O2375       O  0.01013164  0.59896510  0.34401676    -0.75700
O2376       O  0.00509716  0.55232926  0.31853257    -0.54600
C2377       C  0.00737105  0.58689965  0.32468515     0.78000
O2378       O  0.60657784  0.98255607  0.41241741    -0.60300
O2379       O  0.56119705  0.98969819  0.43749512    -0.53400
C2380       C  0.59290631  0.48655874  0.43307192     0.70000
O2381       O  0.60473814  0.98236569  0.34146863    -0.74900
O2382       O  0.55873635  0.98318707  0.31663324    -0.55400
C2383       C  0.59361475  0.98176999  0.32219678     0.76000
O2384       O  0.01199271  0.60290384  0.41479578    -0.60000
O2385       O  0.00540102  0.55813969  0.43921448    -0.53100
C2386       C  0.50627837  0.58309513  0.43465701     0.72600
Zr2387     Zr  0.01193618  0.57451988  0.37928442     2.54700
O2388       O  0.56264983  0.60946830  0.37878922    -0.80600
O2389       O  0.97372773  0.62953829  0.38004552    -0.94000
Zr2390     Zr  0.57920180  0.98273767  0.37690890     2.64700
O2391       O  0.63034030  0.53028701  0.37969236    -0.99000
O2392       O  0.61726172  0.92771999  0.37510910    -0.81000
O2393       O  0.54361463  0.52634897  0.35837859    -0.84400
O2394       O  0.54405373  0.52737530  0.39955226    -2.19100
O2395       O  0.89804492  0.00583633  0.41466527    -0.67800
O2396       O  0.94585638  0.50346633  0.43964182    -0.52300
C2397       C  0.91053355  0.00358369  0.43357786     0.71000
O2398       O  0.98534068  0.89230846  0.34031012    -0.60700
O2399       O  0.99148085  0.93754123  0.31609389    -0.52700
C2400       C  0.98665443  0.90346577  0.32122940     0.72800
O2401       O  0.99158293  0.89410593  0.41198113    -0.72100
O2402       O  0.00053758  0.94081335  0.43719848    -0.50700
C2403       C  0.99570892  0.90637392  0.43126491     0.74200
O2404       O  0.89313765  0.00112206  0.34422298    -0.67400
O2405       O  0.93734433  0.99815418  0.31834193    -0.54600
C2406       C  0.90294826  0.99988652  0.32473591     0.72600
Zr2407     Zr  0.92206020  0.00192303  0.37886185     2.77500
O2408       O  0.86924822  0.95728935  0.38006204    -0.98200
O2409       O  0.87834140  0.55345470  0.37956123    -0.79000
Zr2410     Zr  0.99187453  0.91875015  0.37650191     2.70100
O2411       O  0.93872918  0.87449653  0.37723598    -0.80200
O2412       O  0.53971624  0.86383857  0.37281186    -0.99300
Zr2413     Zr  0.99830523  0.99568869  0.33668628     2.21500
Zr2414     Zr  0.00165661  0.99812338  0.41841971     2.11100
O2415       O  0.95718167  0.96023683  0.39823458    -2.48000
O2416       O  0.95540095  0.95937789  0.35698219    -0.80000
O2417       O  0.96749612  0.54130318  0.39974491    -0.72200
O2418       O  0.53555487  0.94609178  0.35592377    -2.33200
O2419       O  0.96665856  0.53905443  0.35896422    -2.29400
O2420       O  0.53707178  0.94655027  0.39713650    -0.74000
H2421       H  0.56078256  0.54194739  0.40886371     0.78000
H2422       H  0.54891386  0.92941505  0.34650310     0.79100
H2423       H  0.94067884  0.94615671  0.40723970     0.81300
H2424       H  0.95275956  0.55526128  0.35031211     0.78900
H2425       H  0.64114608  0.93571138  0.38218014     0.42000
H2426       H  0.55944142  0.87213411  0.38313303     0.41000
H2427       H  0.91641221  0.88997713  0.37615488     0.40600
H2428       H  0.84682142  0.97247340  0.37844074     0.38600
H2429       H  0.89172068  0.57520525  0.38652501     0.41700
H2430       H  0.95270143  0.62309973  0.37019156     0.36500
H2431       H  0.58017495  0.59998792  0.38927220     0.42600
H2432       H  0.62518813  0.54702149  0.39204363     0.39000
H2433       H  0.87060724  0.94224581  0.36668487     0.43900
H2434       H  0.98896708  0.64881000  0.37291520     0.42700
H2435       H  0.65223561  0.51612181  0.38401753     0.42800
H2436       H  0.52780350  0.84143439  0.37888198     0.43100
C2437       C  0.50095088  0.78253189  0.51161650     0.01900
C2438       C  0.49864748  0.77887060  0.48940457     0.01800
C2439       C  0.49678673  0.74307913  0.47977499    -0.18700
C2440       C  0.49676250  0.71080170  0.49162261     0.01900
C2441       C  0.49620796  0.71433180  0.51397698     0.01800
C2442       C  0.49874409  0.75033697  0.52353440    -0.18700
H2443       H  0.49992175  0.75341273  0.54059492     0.03900
H2444       H  0.49629093  0.74027262  0.46268737     0.03900
C2445       C  0.78827778  0.99926246  0.51342146     0.01900
C2446       C  0.78830656  0.99768168  0.49118152     0.01800
C2447       C  0.75422508  0.99644624  0.48005555    -0.18700
C2448       C  0.71969157  0.99831092  0.49045709     0.01900
C2449       C  0.71969285  0.00244229  0.51273503     0.01800
C2450       C  0.75383687  0.00199025  0.52381800    -0.18700
H2451       H  0.75359471  0.00392339  0.54091776     0.03900
H2452       H  0.75466832  0.99444630  0.46294753     0.03900
C2453       C  0.99401498  0.70700860  0.26575188     0.86100
C2454       C  0.95769925  0.70608164  0.25256447    -0.54200
C2455       C  0.95414003  0.73556596  0.23979243     0.09000
C2456       C  0.48745265  0.75647968  0.24171948     0.19900
C2457       C  0.52496118  0.70334486  0.24941784    -0.54900
C2458       C  0.52173740  0.73245783  0.23643173     0.09100
C2459       C  0.99481883  0.74474533  0.27779712    -0.54400
C2460       C  0.49083594  0.76653639  0.26565788     0.09700
H2461       H  0.93637712  0.68392392  0.25349644     0.14200
H2462       H  0.98459414  0.78841440  0.23153302    -0.00100
H2463       H  0.54939989  0.68642116  0.24849190     0.14500
H2464       H  0.99782778  0.74778519  0.29482915     0.14300
C2465       C  0.98407518  0.87461652  0.30399311    -0.06600
C2466       C  0.51446521  0.86225887  0.29093629    -0.17700
C2467       C  0.51748216  0.83050677  0.27758518     0.10600
C2468       C  0.98762459  0.81217011  0.27559797    -0.06500
C2469       C  0.95460997  0.81936814  0.28685963    -0.17700
C2470       C  0.95261062  0.84985719  0.30123757     0.10700
S2471       S  0.56216474  0.82408485  0.26499288    -0.32700
S2472       S  0.90971857  0.85413244  0.31613161    -0.32700
H2473       H  0.91565047  0.89093391  0.32390798     0.28700
H2474       H  0.56141592  0.78504420  0.26518906     0.28700
H2475       H  0.53822383  0.88183363  0.29251570     0.19300
H2476       H  0.93093328  0.79967225  0.28540550     0.19300
C2477       C  0.00428461  0.61548578  0.30879109    -0.06600
C2478       C  0.97658890  0.64187579  0.31191293    -0.17700
C2479       C  0.97154986  0.67024175  0.29775432     0.10600
C2480       C  0.99612886  0.67375019  0.28026803    -0.06500
C2481       C  0.52118333  0.63825204  0.27738057    -0.17700
C2482       C  0.52531692  0.61054401  0.29192879     0.10700
S2483       S  0.93264281  0.70075963  0.30211820    -0.32700
S2484       S  0.56250970  0.57830913  0.28748898    -0.32700
H2485       H  0.57154133  0.57486069  0.30889438     0.28700
H2486       H  0.92286371  0.68920698  0.32235977     0.28700
H2487       H  0.95821828  0.63966776  0.32541516     0.19300
H2488       H  0.53969747  0.63738477  0.26402617     0.19300
C2489       C  0.50689113  0.61205224  0.45179706    -0.06600
C2490       C  0.47539341  0.61529781  0.46493649    -0.17700
C2491       C  0.47125995  0.64677469  0.47844628     0.10600
C2492       C  0.50014274  0.67472363  0.47964726    -0.06500
C2493       C  0.53260283  0.67011211  0.46742648    -0.17700
C2494       C  0.53620185  0.63935307  0.45352216     0.10700
S2495       S  0.42735123  0.65101846  0.49220963    -0.32700
S2496       S  0.57853399  0.63688996  0.43805852    -0.32700
H2497       H  0.57915839  0.59776490  0.43677757     0.28700
H2498       H  0.42552650  0.68977875  0.49049830     0.28700
H2499       H  0.45266272  0.59454801  0.46354985     0.19300
H2500       H  0.55497059  0.69132766  0.46831312     0.19300
C2501       C  0.99526502  0.87866100  0.44779875    -0.06600
C2502       C  0.52729085  0.86469481  0.45881659    -0.17700
C2503       C  0.52974240  0.83511306  0.47244084     0.10600
C2504       C  0.49796503  0.81139730  0.47561877    -0.06500
C2505       C  0.96803834  0.82431172  0.46424831    -0.17700
C2506       C  0.96546340  0.85214688  0.44960274     0.10700
S2507       S  0.57494731  0.82737758  0.48384455    -0.32700
S2508       S  0.92363572  0.85204744  0.43353293    -0.32700
H2509       H  0.92290315  0.89094102  0.43206690     0.28700
H2510       H  0.57139519  0.78828907  0.48219468     0.28700
H2511       H  0.55196250  0.88237691  0.45622674     0.19300
H2512       H  0.94513674  0.80387152  0.46539330     0.19300
C2513       C  0.62434311  0.98658000  0.44840707    -0.06600
C2514       C  0.62752177  0.51980138  0.46217102    -0.17700
C2515       C  0.65862858  0.52428392  0.47565094     0.10600
C2516       C  0.68500142  0.99459905  0.47724817    -0.06500
C2517       C  0.68018944  0.96234201  0.46409560    -0.17700
C2518       C  0.65048150  0.95816476  0.44966316     0.10700
S2519       S  0.66693673  0.56941197  0.48851743    -0.32700
S2520       S  0.64754381  0.91604770  0.43321174    -0.32700
H2521       H  0.60815892  0.91447336  0.43147120     0.28700
H2522       H  0.70629221  0.56881442  0.48740964     0.28700
H2523       H  0.60927108  0.54298715  0.46031748     0.19300
H2524       H  0.70028908  0.94044847  0.46480379     0.19300
C2525       C  0.82289473  0.99979212  0.47868253    -0.06600
C2526       C  0.82776149  0.53390020  0.46686994    -0.17700
C2527       C  0.85870476  0.53866900  0.45373047     0.10600
C2528       C  0.88292063  0.00470110  0.45046013    -0.06500
C2529       C  0.87730563  0.97276589  0.46217619    -0.17700
C2530       C  0.84705603  0.96970494  0.47601202     0.10700
S2531       S  0.86405532  0.58218423  0.44064254    -0.32700
S2532       S  0.83944876  0.92610505  0.48861540    -0.32700
H2533       H  0.80009626  0.92580524  0.48695167     0.28700
H2534       H  0.90270947  0.58015679  0.43668426     0.28700
H2535       H  0.80812315  0.55616232  0.46881330     0.19300
H2536       H  0.89518846  0.94921551  0.45954128     0.19300
C2537       C  0.62584274  0.00323777  0.55437923    -0.06600
C2538       C  0.65461999  0.53332271  0.55607675    -0.17700
C2539       C  0.68354538  0.53408215  0.54133765     0.10600
C2540       C  0.68510706  0.00579880  0.52534687    -0.06500
C2541       C  0.65745336  0.97706918  0.52372277    -0.17700
C2542       C  0.62772604  0.97555871  0.53803231     0.10700
S2543       S  0.71769985  0.57232677  0.54414143    -0.32700
S2544       S  0.59471718  0.93652425  0.53536205    -0.32700
H2545       H  0.58878633  0.93293946  0.55709401     0.28700
H2546       H  0.73058229  0.57103371  0.52325044     0.28700
H2547       H  0.65379595  0.55512488  0.56837088     0.19300
H2548       H  0.66011075  0.95459482  0.51198032     0.19300
C2549       C  0.82305808  0.99872085  0.52648906    -0.06600
C2550       C  0.84748559  0.52666429  0.52371986    -0.17700
C2551       C  0.87698068  0.53124286  0.53824812     0.10600
C2552       C  0.88348396  0.00592906  0.55553393    -0.06500
C2553       C  0.85615833  0.97723259  0.55704358    -0.17700
C2554       C  0.82657039  0.97290167  0.54260624     0.10700
S2555       S  0.90624495  0.57309649  0.53737018    -0.32700
S2556       S  0.79426937  0.93373932  0.54583915    -0.32700
H2557       H  0.78225024  0.93012133  0.52475015     0.28700
H2558       H  0.91122251  0.57795122  0.55931480     0.28700
H2559       H  0.84281363  0.54843422  0.51278345     0.19300
H2560       H  0.85807630  0.95770497  0.56955886     0.19300
C2561       C  0.50037410  0.62484350  0.55757920    -0.06600
C2562       C  0.96956266  0.65603370  0.55551507    -0.17700
C2563       C  0.96659184  0.68355659  0.54070670     0.10600
C2564       C  0.49501038  0.68173501  0.52797797    -0.06500
C2565       C  0.52294607  0.65509487  0.52606839    -0.17700
C2566       C  0.52579597  0.62674667  0.54052686     0.10700
S2567       S  0.92552337  0.71168072  0.54235532    -0.32700
S2568       S  0.56387578  0.59528344  0.53702397    -0.32700
H2569       H  0.57182373  0.59295512  0.55864874     0.28700
H2570       H  0.92689096  0.72460685  0.52179231     0.28700
H2571       H  0.94773384  0.65290519  0.56725176     0.19300
H2572       H  0.54380296  0.65727789  0.51375580     0.19300
C2573       C  0.00530407  0.88844453  0.55414676    -0.06600
C2574       C  0.53598565  0.85814400  0.55079922    -0.17700
C2575       C  0.53637798  0.82683978  0.53706500     0.10600
C2576       C  0.00630122  0.82600056  0.52543933    -0.06500
C2577       C  0.97922984  0.85325442  0.52356638    -0.17700
C2578       C  0.97843261  0.88436149  0.53769061     0.10700
S2579       S  0.57638501  0.79744786  0.53888150    -0.32700
S2580       S  0.94106094  0.91633644  0.53464481    -0.32700
H2581       H  0.93553172  0.92363799  0.55633143     0.28700
H2582       H  0.57135103  0.77693983  0.51976019     0.28700
H2583       H  0.55882655  0.86300470  0.56199472     0.19300
H2584       H  0.95740419  0.84936487  0.51169776     0.19300
C2585       C  0.54965931  0.73907489  0.21926440    -0.06600
C2586       C  0.56317943  0.77540909  0.21575843    -0.17700
C2587       C  0.59362064  0.78216138  0.20221618     0.10600
C2588       C  0.61185943  0.75174280  0.19232864    -0.06500
C2589       C  0.59643589  0.71582202  0.19449853    -0.17700
C2590       C  0.56522336  0.70922916  0.20725117     0.10700
S2591       S  0.60636206  0.83015283  0.19788861    -0.32700
S2592       S  0.54504840  0.66248838  0.20597353    -0.32700
H2593       H  0.50820898  0.67368006  0.20952683     0.28700
H2594       H  0.62564385  0.82434241  0.17884888     0.28700
H2595       H  0.54999575  0.79879214  0.22355861     0.19300
H2596       H  0.60796408  0.69271221  0.18546147     0.19300
C2597       C  0.92135137  0.73906698  0.22530754    -0.06600
C2598       C  0.90253613  0.77289158  0.22529242    -0.17700
C2599       C  0.87178713  0.77769612  0.21181109     0.10600
C2600       C  0.85959521  0.74803604  0.19790016    -0.06500
C2601       C  0.87808215  0.71429109  0.19802099    -0.17700
C2602       C  0.90862194  0.70934497  0.21145564     0.10700
S2603       S  0.84990497  0.82233969  0.21299891    -0.32700
S2604       S  0.93211604  0.66554757  0.20960690    -0.32700
H2605       H  0.90953964  0.64814395  0.19363013     0.28700
H2606       H  0.83460058  0.82079534  0.19255850     0.28700
H2607       H  0.91188638  0.79577828  0.23586814     0.19300
H2608       H  0.86882645  0.69186864  0.18711459     0.19300
C2609       C  0.73410022  0.56639234  0.02365993    -0.06600
C2610       C  0.76349160  0.59343594  0.02301941    -0.17700
C2611       C  0.76508306  0.62442194  0.03723716     0.10600
C2612       C  0.73662978  0.62870000  0.05257297    -0.06500
C2613       C  0.70639486  0.60269038  0.05253367    -0.17700
C2614       C  0.70449041  0.57205377  0.03819006     0.10700
S2615       S  0.80547100  0.65584642  0.03589747    -0.32700
S2616       S  0.66375943  0.54097869  0.03979168    -0.32700
H2617       H  0.66649223  0.52389403  0.01961645     0.28700
H2618       H  0.80901914  0.66275357  0.05778886     0.28700
H2619       H  0.78665696  0.58923375  0.01226180     0.19300
H2620       H  0.68409243  0.60612741  0.06397336     0.19300
C2621       C  0.74101534  0.87079682  0.05463644    -0.06600
C2622       C  0.77394636  0.88225958  0.04438608    -0.17700
C2623       C  0.77386595  0.91078008  0.03001500     0.10600
C2624       C  0.73995855  0.92814270  0.02556164    -0.06500
C2625       C  0.70687047  0.91632655  0.03562853    -0.17700
C2626       C  0.70695441  0.88779549  0.05001587     0.10700
S2627       S  0.81826116  0.92503272  0.01887424    -0.32700
S2628       S  0.66293846  0.87561265  0.06245572    -0.32700
H2629       H  0.67238667  0.84034218  0.06912026     0.28700
H2630       H  0.81108685  0.96325087  0.01911304     0.28700
H2631       H  0.80031192  0.87036095  0.04845547     0.19300
H2632       H  0.68087633  0.92996436  0.03251157     0.19300
C2633       C  0.74266584  0.56077860  0.97621297    -0.06600
C2634       C  0.77712408  0.57300421  0.96784523    -0.17700
C2635       C  0.77902081  0.60154777  0.95352969     0.10600
C2636       C  0.74559357  0.61801963  0.94728871    -0.06500
C2637       C  0.71123815  0.60573498  0.95560707    -0.17700
C2638       C  0.70932451  0.57741684  0.97001758     0.10700
S2639       S  0.82463330  0.61411663  0.94315856    -0.32700
S2640       S  0.66342127  0.56283467  0.97904544    -0.32700
H2641       H  0.67115769  0.52498213  0.98056340     0.28700
H2642       H  0.81586409  0.64941978  0.93639655     0.28700
H2643       H  0.80267061  0.55969748  0.97226179     0.19300
H2644       H  0.68549024  0.61677998  0.94993196     0.19300
C2645       C  0.74544043  0.92338922  0.97772930    -0.06600
C2646       C  0.71740692  0.89506912  0.97918090    -0.17700
C2647       C  0.71665006  0.86336547  0.96543150     0.10600
C2648       C  0.74438025  0.85977366  0.94962360    -0.06500
C2649       C  0.77319987  0.88720477  0.94875305    -0.17700
C2650       C  0.77440009  0.91848597  0.96266096     0.10700
S2651       S  0.67843804  0.82968826  0.96817043    -0.32700
S2652       S  0.81358307  0.95113808  0.95987356    -0.32700
H2653       H  0.81223372  0.96793734  0.98017831     0.28700
H2654       H  0.67361605  0.82126020  0.94648601     0.28700
H2655       H  0.69480850  0.89850774  0.99040444     0.19300
H2656       H  0.79495263  0.88436320  0.93692840     0.19300
C2657       C  0.00241798  0.63729457  0.69855441    -0.06600
C2658       C  0.96820040  0.64419057  0.70855121    -0.17700
C2659       C  0.96389682  0.67545889  0.72210876     0.10600
C2660       C  0.99542865  0.69903436  0.72721144    -0.06500
C2661       C  0.51870112  0.66047295  0.73044209    -0.17700
C2662       C  0.52369888  0.63028206  0.71614507     0.10700
S2663       S  0.91669027  0.68535917  0.73016008    -0.32700
S2664       S  0.56722959  0.60621982  0.71745860    -0.32700
H2665       H  0.57040405  0.59792136  0.69570990     0.28700
H2666       H  0.92152457  0.72427091  0.73204045     0.28700
H2667       H  0.94373837  0.62704442  0.70420217     0.19300
H2668       H  0.54121833  0.66877261  0.74129936     0.19300
C2669       C  0.00769880  0.89538056  0.69697218    -0.06600
C2670       C  0.99056902  0.90180206  0.71665439    -0.17700
C2671       C  0.98874787  0.87402024  0.73169581     0.10600
C2672       C  0.00099183  0.83772914  0.72605662    -0.06500
C2673       C  0.51270398  0.81493941  0.70205281    -0.17700
C2674       C  0.51484574  0.84239781  0.68716381     0.10700
S2675       S  0.97641600  0.88754047  0.75845650    -0.32700
S2676       S  0.53416543  0.82975194  0.66155434    -0.32700
H2677       H  0.53306024  0.79087360  0.66346890     0.28700
H2678       H  0.96116697  0.92195342  0.75402188     0.28700
H2679       H  0.97924618  0.92884661  0.72037322     0.19300
H2680       H  0.52396849  0.78826862  0.69770536     0.19300
C2681       C  0.56358856  0.75025326  0.77826820    -0.06600
C2682       C  0.57075147  0.71346132  0.78366298    -0.17700
C2683       C  0.60050490  0.70539892  0.79712798     0.10600
C2684       C  0.62536847  0.73445301  0.80448869    -0.06500
C2685       C  0.61921238  0.77083446  0.79874693    -0.17700
C2686       C  0.58797759  0.77941737  0.78675558     0.10700
S2687       S  0.60422887  0.65768782  0.80461650    -0.32700
S2688       S  0.57957709  0.82854889  0.78555561    -0.32700
H2689       H  0.54036822  0.82468732  0.78672575     0.28700
H2690       H  0.63877905  0.66118877  0.81526849     0.28700
H2691       H  0.55290749  0.69056004  0.77761377     0.19300
H2692       H  0.63730347  0.79337278  0.80522098     0.19300
C2693       C  0.93343832  0.76306336  0.78323851    -0.06600
C2694       C  0.91380656  0.72846878  0.78230106    -0.17700
C2695       C  0.88236393  0.72163495  0.79507220     0.10600
C2696       C  0.87066468  0.74982518  0.80947142    -0.06500
C2697       C  0.89100860  0.78384636  0.81096168    -0.17700
C2698       C  0.92230100  0.79052773  0.79830197     0.10700
S2699       S  0.85886736  0.67641682  0.79249702    -0.32700
S2700       S  0.94911772  0.83308103  0.80363485    -0.32700
H2701       H  0.98321528  0.81468662  0.80288611     0.28700
H2702       H  0.84797780  0.67439522  0.81371383     0.28700
H2703       H  0.92306778  0.70654188  0.77166445     0.19300
H2704       H  0.88299297  0.80510809  0.82254369     0.19300
C2705       C  0.82054104  0.98459942  0.72257918    -0.06600
C2706       C  0.84196953  0.51602506  0.72583582    -0.17700
C2707       C  0.87175278  0.52314801  0.71204847     0.10600
C2708       C  0.88313348  0.99719078  0.69605831    -0.06500
C2709       C  0.85680932  0.96797056  0.69143578    -0.17700
C2710       C  0.82582103  0.96134981  0.70442159     0.10700
S2711       S  0.89955410  0.56530862  0.71673667    -0.32700
S2712       S  0.79397550  0.92304941  0.69668530    -0.32700
H2713       H  0.76153716  0.93772548  0.70584940     0.28700
H2714       H  0.90344748  0.57295801  0.69526755     0.28700
H2715       H  0.83698961  0.53557774  0.73889853     0.19300
H2716       H  0.86028160  0.95019830  0.67741000     0.19300
C2717       C  0.62851186  0.00290154  0.69702016    -0.06600
C2718       C  0.66557776  0.01272535  0.69126214    -0.17700
C2719       C  0.69626414  0.00811614  0.70468851     0.10600
C2720       C  0.69010504  0.99422827  0.72499884    -0.06500
C2721       C  0.65216632  0.48965338  0.73240497    -0.15700
C2722       C  0.62165911  0.49426915  0.71888347     0.10700
S2723       S  0.74279397  0.01672283  0.69435165    -0.32700
S2724       S  0.57573894  0.48334742  0.72921610    -0.32700
H2725       H  0.56832313  0.45469072  0.71384976     0.28700
H2726       H  0.73220522  0.03663164  0.67677695     0.28700
H2727       H  0.67090092  0.02268402  0.67564765     0.19300
H2728       H  0.64665019  0.48073515  0.74825055     0.19300
C2729       C  0.76168877  0.61306922  0.80481571    -0.06600
C2730       C  0.79101079  0.58841498  0.80694368    -0.17700
C2731       C  0.79365740  0.55692104  0.79350133     0.10600
C2732       C  0.76537962  0.54892512  0.77823373    -0.06500
C2733       C  0.73787758  0.57501954  0.77491993    -0.17700
C2734       C  0.73591825  0.60732066  0.78796419     0.10700
S2735       S  0.83350632  0.52794776  0.79669385    -0.32700
S2736       S  0.69844319  0.63896142  0.78415014    -0.32700
H2737       H  0.68360001  0.62138141  0.76560471     0.28700
H2738       H  0.83321088  0.51248382  0.77599027     0.28700
H2739       H  0.81166804  0.59346899  0.81938633     0.19300
H2740       H  0.71655012  0.56886370  0.76298339     0.19300
C2741       C  0.74775204  0.91020345  0.77757399    -0.06600
C2742       C  0.77198458  0.87998604  0.77579376    -0.17700
C2743       C  0.76984941  0.85073442  0.78963554     0.10600
C2744       C  0.74327196  0.85123157  0.80605323    -0.06500
C2745       C  0.71777042  0.87995573  0.80735756    -0.17700
C2746       C  0.71911575  0.90894357  0.79321891     0.10700
S2747       S  0.80402868  0.81516228  0.78662970    -0.32700
S2748       S  0.68471481  0.94475868  0.79621163    -0.32700
H2749       H  0.66085468  0.92619481  0.81028417     0.28700
H2750       H  0.77677940  0.78733711  0.78088449     0.28700
H2751       H  0.79334626  0.87849533  0.76388345     0.19300
H2752       H  0.69701350  0.87991624  0.81980082     0.19300
C2753       C  0.62496841  0.74859035  0.05103304    -0.06600
C2754       C  0.61767363  0.78030013  0.03978280    -0.17700
C2755       C  0.58663043  0.78084878  0.02630721     0.10600
C2756       C  0.56347251  0.74841183  0.02340381    -0.06500
C2757       C  0.57220382  0.71607375  0.03378026    -0.17700
C2758       C  0.60278474  0.71579834  0.04747635     0.10700
S2759       S  0.57670280  0.82432102  0.01460820    -0.32700
S2760       S  0.61162958  0.67321840  0.06044139    -0.32700
H2761       H  0.65091816  0.67841337  0.06079799     0.28700
H2762       H  0.53740950  0.81976733  0.01528310     0.28700
H2763       H  0.63485305  0.80540169  0.04245999     0.19300
H2764       H  0.55447063  0.69111987  0.03153194     0.19300
C2765       C  0.92446907  0.73894764  0.02641100    -0.06600
C2766       C  0.89634873  0.76483151  0.02418097    -0.17700
C2767       C  0.86659689  0.76691637  0.03834614     0.10600
C2768       C  0.86511729  0.74316274  0.05553312    -0.06500
C2769       C  0.89255066  0.71650194  0.05746930    -0.17700
C2770       C  0.92169164  0.71354858  0.04290281     0.10700
S2771       S  0.83315905  0.80238107  0.03440871    -0.32700
S2772       S  0.95430037  0.67687864  0.04643950    -0.32700
H2773       H  0.96527657  0.67320125  0.02523211     0.28700
H2774       H  0.83058076  0.81291415  0.05593186     0.28700
H2775       H  0.89857386  0.78504929  0.01201548     0.19300
H2776       H  0.89106174  0.69758976  0.07035160     0.19300
C2777       C  0.61868360  0.73874163  0.94647132    -0.06600
C2778       C  0.59322685  0.76728612  0.94465373    -0.17700
C2779       C  0.56448223  0.77230143  0.95931114     0.10600
C2780       C  0.55997590  0.74717124  0.97581627    -0.06500
C2781       C  0.58606602  0.71917331  0.97789392    -0.17700
C2782       C  0.61559826  0.71508756  0.96364290     0.10700
S2783       S  0.53471022  0.81130661  0.95587915    -0.32700
S2784       S  0.64706890  0.67799507  0.96765511    -0.32700
H2785       H  0.65194545  0.66953888  0.94604230     0.28700
H2786       H  0.02178365  0.81744511  0.97753038     0.28700
H2787       H  0.59611777  0.78621294  0.93183178     0.19300
H2788       H  0.58250592  0.69923127  0.99013332     0.19300
C2789       C  0.92200480  0.74315760  0.97859379    -0.06600
C2790       C  0.91586620  0.77515710  0.96723501    -0.17700
C2791       C  0.88542852  0.77673722  0.95350785     0.10600
C2792       C  0.86028392  0.74583274  0.95110834    -0.06500
C2793       C  0.86490611  0.71473342  0.96339185    -0.17700
C2794       C  0.89610874  0.71259426  0.97667168     0.10700
S2795       S  0.88032806  0.81856300  0.93912650    -0.32700
S2796       S  0.90279600  0.66922033  0.98922517    -0.32700
H2797       H  0.94219460  0.67073759  0.98801818     0.28700
H2798       H  0.84080653  0.81674789  0.93885785     0.28700
H2799       H  0.93550497  0.79881538  0.96875471     0.19300
H2800       H  0.84555322  0.69100262  0.96157239     0.19300
C2801       C  0.80927456  0.00842374  0.28165524    -0.06600
C2802       C  0.83989676  0.98687700  0.27557475    -0.17700
C2803       C  0.87083321  0.98323428  0.28905292     0.10600
C2804       C  0.87153931  0.00184232  0.30917520    -0.06500
C2805       C  0.84878852  0.53291797  0.31307775    -0.17700
C2806       C  0.81712693  0.53518664  0.30016110     0.10700
S2807       S  0.90773300  0.95379697  0.27973235    -0.32700
S2808       S  0.78317748  0.56944965  0.30752656    -0.32700
H2809       H  0.75168384  0.54866554  0.29968626     0.28700
H2810       H  0.91411210  0.93841149  0.29933689     0.28700
H2811       H  0.83985959  0.97304884  0.26007093     0.19300
H2812       H  0.85196233  0.55216401  0.32660967     0.19300
C2813       C  0.62349523  0.98061666  0.30550368    -0.06600
C2814       C  0.61421320  0.98910909  0.28470918    -0.17700
C2815       C  0.64184044  0.99308229  0.26913698     0.10600
C2816       C  0.68024698  0.99005319  0.27443736    -0.06500
C2817       C  0.69188715  0.48279140  0.29703538    -0.17700
C2818       C  0.66410139  0.47729975  0.31240752     0.10700
S2819       S  0.62599616  0.00074979  0.24269538    -0.32700
S2820       S  0.67913674  0.46124046  0.33765812    -0.32700
H2821       H  0.71615172  0.45289082  0.33196354     0.28700
H2822       H  0.65599236  0.98279502  0.23266314     0.28700
H2823       H  0.58521094  0.99317291  0.28050506     0.19300
H2824       H  0.72112511  0.48001796  0.30113709     0.19300
C2825       C  0.74720061  0.57942994  0.22467386    -0.06600
C2826       C  0.71165823  0.58949674  0.21715185    -0.17700
C2827       C  0.70767528  0.61773502  0.20291123     0.10600
C2828       C  0.73972381  0.63667993  0.19548008    -0.06500
C2829       C  0.77523035  0.62668568  0.20220414    -0.17700
C2830       C  0.77956722  0.59769181  0.21602195     0.10700
S2831       S  0.66102279  0.62672511  0.19374652    -0.32700
S2832       S  0.82742322  0.58491401  0.22041889    -0.32700
H2833       H  0.82004202  0.54645670  0.21847720     0.28700
H2834       H  0.66785519  0.66481770  0.19063745     0.28700
H2835       H  0.68635573  0.57429856  0.22143803     0.19300
H2836       H  0.79997130  0.64040327  0.19574436     0.19300
C2837       C  0.76168282  0.94080762  0.22448836    -0.06600
C2838       C  0.73513077  0.91227807  0.22831664    -0.17700
C2839       C  0.73236958  0.88032575  0.21503400     0.10600
C2840       C  0.75662818  0.87693180  0.19750680    -0.06500
C2841       C  0.78572374  0.90369202  0.19512010    -0.17700
C2842       C  0.78897531  0.93524903  0.20872602     0.10700
S2843       S  0.69560349  0.84656761  0.22045016    -0.32700
S2844       S  0.82822550  0.96790794  0.20617104    -0.32700
H2845       H  0.84585090  0.44836911  0.19040332     0.28700
H2846       H  0.68561040  0.83990132  0.19919896     0.28700
H2847       H  0.71464025  0.91606567  0.24075487     0.19300
H2848       H  0.80551178  0.90006643  0.18232754     0.19300
loop_ 
_geom_bond_atom_site_label_1 
_geom_bond_atom_site_label_2 
_geom_bond_distance 
_geom_bond_site_symmetry_2 
_ccdc_geom_bond_type 
C1            C2   1.541       .  S
C1            C7   1.530       .  S
C1            C5   1.539       .  S
C1          C689   1.538       .  S
C2            H9   1.085       .  S
C2          C715   1.364       .  D
C3            C4   1.550       .  S
C3          C714   1.365       .  D
C3          C680   1.495       .  S
C4            C8   1.533       .  S
C4            C6   1.546       .  S
C4           H10   1.110       .  S
C5           H11   1.084       .  S
C5          C718   1.369       .  D
C6          C717   1.367       .  D
C6          C665   1.486       .  S
C7          H724   1.087       .  S
C7          C720   1.363   1_545  D
C8          C719   1.362       .  D
C8          C701   1.479       .  S
H12         C719   1.087       .  S
C13          C14   1.412   1_556  A
C13        C1442   1.400       .  A
C13         C653   1.478       .  S
C14        C1439   1.399       .  A
C14         C629   1.482       .  S
C15          C16   1.399   1_655  A
C15        C1438   1.402       .  A
C15          H20   1.085       .  S
C16          C17   1.413   1_554  A
C16         C620   1.480       .  S
C17          C18   1.402   1_455  A
C17         C644   1.480       .  S
C18        C1437   1.397       .  A
C18          H19   1.085       .  S
C21          C22   1.530       .  S
C21          C27   1.527       .  S
C21          C25   1.551       .  S
C21         C605   1.542       .  S
C22          H29   1.085       .  S
C22          C23   1.367       .  D
C23         C736   1.559       .  S
C23         C584   1.499       .  S
C24          C28   1.546       .  S
C24         C735   1.555   1_545  S
C24         C738   1.538   1_545  S
C24          H30   1.110       .  S
C25          H31   1.080       .  S
C25          C26   1.365       .  D
C26         C736   1.543       .  S
C26         C569   1.489       .  S
C27          H32   1.086       .  S
C27         C740   1.363       .  D
C28         C739   1.362   1_545  D
C28         C596   1.486       .  S
C33          C39   1.534       .  S
C33          C37   1.535   1_655  S
C33        C1458   1.542       .  S
C33        C1960   1.541       .  S
C34        C1457   1.548       .  S
C34          H41   1.084       .  S
C34          C35   1.369       .  D
C35        C1460   1.538       .  S
C35         C557   1.485       .  S
C36          C40   1.542       .  S
C36          C38   1.549   1_655  S
C36        C1459   1.546       .  S
C36          H42   1.109       .  S
C37          H43   1.084       .  S
C37          C38   1.369       .  D
C38         C545   1.505       .  S
C39          H44   1.087       .  S
C39          C40   1.357       .  D
C40        C1948   1.474       .  S
C45          C46   1.415   1_554  A
C45         C762   1.403       .  A
C45         C488   1.477       .  S
C46         C759   1.405       .  A
C46         C509   1.494       .  S
C47          C48   1.406   1_565  A
C47         C758   1.406       .  A
C47          H52   1.084       .  S
C48          C49   1.416   1_556  A
C48         C497   1.482       .  S
C49          C50   1.407   1_545  A
C49         C473   1.498       .  S
C50         C757   1.406       .  A
C50          H51   1.085       .  S
O53         Zr65   2.440       .  S
O53          C55   1.288       .  A
O54         Zr91   2.413       .  S
O54          C55   1.283       .  A
C55         C656   1.465       .  S
O56         Zr68   2.449       .  S
O56          C58   1.289       .  A
O57         Zr92   2.416       .  S
O57          C58   1.284       .  A
C58         C608   1.476       .  S
O59         Zr68   2.445       .  S
O59          C61   1.289       .  A
O60         Zr91   2.442       .  S
O60          C61   1.289       .  A
C61         C512   1.484       .  S
O62         Zr65   2.422       .  S
O62          C64   1.285       .  A
O63         Zr92   2.445       .  S
O63          C64   1.290       .  A
C64         C560   1.483       .  S
Zr65         O66   2.434       .  S
Zr65         O67   2.437       .  S
Zr65         O71   2.363       .  S
Zr65         O72   2.372       .  S
Zr65         O95   2.372       .  S
Zr65         O97   2.359       .  S
O66         H109   0.990       .  S
O67         H108   0.990       .  S
O67         H112   0.990       .  S
Zr68         O69   2.437       .  S
Zr68         O70   2.434       .  S
Zr68         O72   2.369       .  S
Zr68         O71   2.372       .  S
Zr68         O96   2.363       .  S
Zr68         O98   2.372       .  S
O69         H110   0.990       .  S
O69         H113   0.990       .  S
O70         H103   0.990       .  S
O71         Zr91   2.381       .  S
O72         Zr92   2.389       .  S
O72          H99   0.966       .  S
O73         Zr85   2.453       .  S
O73          C75   1.291       .  A
O74         Zr92   2.421       .  S
O74          C75   1.285       .  A
C75         C593   1.481       .  S
O76         Zr88   2.441       .  S
O76          C78   1.288       .  A
O77         Zr91   2.407       .  S
O77          C78   1.283       .  A
C78         C641   1.467       .  S
O79         Zr88   2.443       .  S
O79          C81   1.287       .  A
O80         Zr92   2.446       .  S
O80          C81   1.290       .  A
C81         C548   1.479       .  S
O82         Zr85   2.449       .  S
O82          C84   1.289       .  A
O83         Zr91   2.434       .  S
O83          C84   1.288       .  A
C84         C500   1.475       .  S
Zr85         O86   2.433       .  S
Zr85         O87   2.434       .  S
Zr85         O93   2.376       .  S
Zr85         O94   2.380       .  S
Zr85         O97   2.371       .  S
Zr85         O95   2.369       .  S
O86         H106   0.990       .  S
O86         H111   0.990       .  S
O87         H107   0.990       .  S
Zr88         O89   2.434       .  S
Zr88         O90   2.437       .  S
Zr88         O94   2.370       .  S
Zr88         O93   2.374       .  S
Zr88         O98   2.376       .  S
Zr88         O96   2.376       .  S
O89         H105   0.990       .  S
O90         H104   0.990       .  S
O90         H114   0.990       .  S
Zr91         O94   2.385       .  S
Zr91         O96   2.385       .  S
Zr91         O97   2.383       .  S
Zr92         O93   2.390       .  S
Zr92         O95   2.385       .  S
Zr92         O98   2.385       .  S
O93         H101   0.965       .  S
O96         H100   0.967       .  S
O97         H102   0.963       .  S
O115       Zr127   2.439       .  S
O115        C117   1.288       .  A
O116       Zr153   2.447       .  S
O116        C117   1.290       .  A
C117        C464   1.478       .  S
O118       Zr130   2.436       .  S
O118        C120   1.287       .  A
O119       Zr154   2.426       .  S
O119        C120   1.286       .  A
C120        C485   1.466       .  S
O121       Zr130   2.444       .  S
O121        C123   1.289       .  A
O122       Zr153   2.414       .  S
O122        C123   1.284       .  A
C123        C704   1.474       .  S
O124       Zr127   2.445       .  S
O124        C126   1.289       .  A
O125       Zr154   2.408       .  S
O125        C126   1.283       .  A
C126        C632   1.473       .  S
Zr127       O128   2.435       .  S
Zr127       O129   2.436       .  S
Zr127       O133   2.372       .  S
Zr127       O134   2.367       .  S
Zr127       O157   2.371       .  S
Zr127       O159   2.371       .  S
O128        H171   0.990       .  S
O129        H170   0.990       .  S
O129        H174   0.990       .  S
Zr130       O131   2.437       .  S
Zr130       O132   2.433       .  S
Zr130       O134   2.373       .  S
Zr130       O133   2.366       .  S
Zr130       O158   2.370       .  S
Zr130       O160   2.373       .  S
O131        H172   0.990       .  S
O131        H175   0.990       .  S
O132        H165   0.990       .  S
O133       Zr153   2.388       .  S
O134       Zr154   2.387       .  S
O134        H161   0.966       .  S
O135       Zr147   2.455       .  S
O135        C137   1.291       .  A
O136       Zr154   2.442       .  S
O136        C137   1.289       .  A
C137        C476   1.488       .  S
O138       Zr150   2.422       .  S
O138        C140   1.283       .  A
O139       Zr153   2.466       .  S
O139        C140   1.294       .  A
C140        C452   1.478       .  S
O141       Zr150   2.441       .  S
O141        C143   1.288       .  A
O142       Zr154   2.417       .  S
O142        C143   1.284       .  A
C143        C617   1.466       .  S
O144       Zr147   2.446       .  S
O144        C146   1.288       .  A
O145       Zr153   2.417       .  S
O145        C146   1.284       .  A
C146        C692   1.464       .  S
Zr147       O148   2.434       .  S
Zr147       O149   2.435       .  S
Zr147       O155   2.367       .  S
Zr147       O156   2.378       .  S
Zr147       O159   2.368       .  S
Zr147       O157   2.371       .  S
O148        H168   0.990       .  S
O148        H173   0.990       .  S
O149        H169   0.990       .  S
Zr150       O151   2.434       .  S
Zr150       O152   2.434       .  S
Zr150       O156   2.380       .  S
Zr150       O155   2.371       .  S
Zr150       O160   2.360       .  S
Zr150       O158   2.372       .  S
O151        H167   0.990       .  S
O152        H166   0.990       .  S
O152        H176   0.990       .  S
Zr153       O156   2.387       .  S
Zr153       O158   2.385       .  S
Zr153       O159   2.393       .  S
Zr154       O155   2.382       .  S
Zr154       O157   2.381       .  S
Zr154       O160   2.381       .  S
O155        H163   0.966       .  S
O158        H162   0.966       .  S
O159        H164   0.964       .  S
O177       Zr189   2.435       .  S
O177        C179   1.286       .  A
O178      Zr1639   2.439       .  S
O178        C179   1.289       .  A
C179        C581   1.473       .  S
O180       Zr192   2.463       .  S
O180        C182   1.293       .  A
O181       Zr928   2.424       .  S
O181        C182   1.286       .  A
C182       C1849   1.485       .  S
O183       Zr192   2.451       .  S
O183        C185   1.291       .  A
O184       Zr927   2.419       .  S
O184        C185   1.285       .  A
C185        C521   1.472       .  S
O186       Zr189   2.436       .  S
O186        C900   1.287       .  A
O187      Zr1640   2.412       .  S
O187        C900   1.283       .  A
C188       C1113   1.468       .  S
C188        O898   1.288       .  A
C188        O899   1.284       .  A
Zr189       O191   2.436       .  S
Zr189       O902   2.433       .  S
Zr189       O219   2.372       .  S
Zr189       O221   2.372       .  S
Zr189       O907   2.370       .  S
Zr189       O908   2.367       .  S
O190       Zr901   2.434       .  S
O190        H233   0.990       .  S
O191        H232   0.990       .  S
O191        H236   0.990       .  S
Zr192       O194   2.433       .  S
Zr192      O1617   2.435       .  S
Zr192       O220   2.373       .  S
Zr192       O222   2.375       .  S
Zr192      O1620   2.368       .  S
Zr192      O1619   2.377       .  S
O193      Zr1616   2.437       .  S
O193        H234   0.990       .  S
O193        H237   0.990       .  S
O194        H227   0.990       .  S
O195       Zr901   2.375       .  S
O195      Zr1616   2.376       .  S
O195      Zr2351   2.392       .  S
O196       Zr901   2.366       .  S
O196      Zr1616   2.371       .  S
O196      Zr2352   2.392       .  S
O196        H223   0.966       .  S
O197       Zr209   2.444       .  S
O197        C199   1.289       .  A
O198       Zr216   2.439       .  S
O198        C199   1.288       .  A
C199        C437   1.482       .  S
O200       Zr212   2.426       .  S
O200        C202   1.286       .  A
O201       Zr215   2.454       .  S
O201        C202   1.291       .  A
C202        C572   1.486       .  S
O203       Zr212   2.430       .  S
O203        C205   1.286       .  A
O204       Zr928   2.422       .  S
O204        C917   1.285       .  A
C205        C416   1.470       .  S
C205        O916   1.285       .  A
O206       Zr209   2.441       .  S
O206        C208   1.288       .  A
O207       Zr215   2.433       .  S
O207        C208   1.288       .  A
C208        C533   1.492       .  S
Zr209       O210   2.435       .  S
Zr209      O1635   2.435       .  S
Zr209       O217   2.368       .  S
Zr209       O218   2.372       .  S
Zr209      O1645   2.368       .  S
Zr209      O1643   2.367       .  S
O210        H230   0.990       .  S
O210        H235   0.990       .  S
O211      Zr1633   2.433       .  S
O211        H231   0.990       .  S
Zr212       O213   2.435       .  S
Zr212       O926   2.434       .  S
Zr212       O218   2.371       .  S
Zr212       O217   2.364       .  S
Zr212       O934   2.367       .  S
Zr212       O932   2.364       .  S
O213        H229   0.990       .  S
O214       Zr924   2.435       .  S
O214        H228   0.990       .  S
O214        H238   0.990       .  S
Zr215      O1602   2.436       .  S
Zr215       O896   2.417       .  S
Zr215       O218   2.383       .  S
Zr215      O2331   2.392       .  S
Zr215       O932   2.391       .  S
Zr215      O1645   2.389       .  S
Zr216       O893   2.428       .  S
Zr216      O1611   2.411       .  S
Zr216       O916   2.421       .  S
Zr216       O217   2.381       .  S
Zr216      O2332   2.391       .  S
Zr216      O1643   2.382       .  S
Zr216       O934   2.382       .  S
O217        H225   0.966       .  S
O219      Zr1633   2.370       .  S
O219      Zr1640   2.380       .  S
O220       Zr924   2.360       .  S
O220       Zr927   2.390       .  S
O220        H224   0.966       .  S
O221      Zr1633   2.368       .  S
O221      Zr1639   2.391       .  S
O221        H226   0.964       .  S
O222       Zr924   2.367       .  S
O222       Zr928   2.382       .  S
O239       Zr251   2.436       .  S
O239        C241   1.287       .  A
O240       Zr989   2.423   1_545  S
O240        C241   1.286       .  A
C241        C341   1.471       .  S
O242       Zr254   2.459       .  S
O242        C956   1.291       .  A
O243      Zr1702   2.408       .  S
O243        C956   1.282       .  A
C244       C1089   1.473       .  S
C244        O954   1.290       .  A
C244        O955   1.284       .  A
O245       Zr254   2.430       .  S
O245        C247   1.284       .  A
O246      Zr1701   2.454       .  S
O246        C247   1.293       .  A
C247        C677   1.502       .  S
O248       Zr251   2.444       .  S
O248       C1674   1.289       .  A
O249       Zr990   2.431   1_545  S
O249       C1674   1.287       .  A
C250        C353   1.477       .  S
C250       O1672   1.289       .  A
C250       O1673   1.287       .  A
Zr251       O253   2.435       .  S
Zr251      O1676   2.435       .  S
Zr251       O281   2.371       .  S
Zr251       O283   2.373       .  S
Zr251      O1681   2.371       .  S
Zr251      O1682   2.366       .  S
O252      Zr1675   2.435       .  S
O252        H295   0.990       .  S
O253        H294   0.990       .  S
O253        H298   0.990       .  S
Zr254       O256   2.435       .  S
Zr254       O967   2.435       .  S
Zr254       O282   2.374       .  S
Zr254       O284   2.366       .  S
Zr254       O970   2.366       .  S
Zr254       O969   2.382       .  S
O255       Zr966   2.436   1_545  S
O255        H296   0.990       .  S
O255        H299   0.990       .  S
O256        H289   0.990       .  S
O257      Zr1675   2.373       .  S
O257       Zr966   2.377   1_545  S
O257      Zr2413   2.391   1_445  S
O258      Zr1675   2.369       .  S
O258       Zr966   2.364   1_545  S
O258      Zr2414   2.378   1_545  S
O258        H285   0.965       .  S
O259       Zr271   2.449       .  S
O259        C261   1.290       .  A
O260       Zr990   2.407       .  S
O260        C973   1.282       .  A
C261        C392   1.466       .  S
C261        O972   1.282       .  A
O262       Zr274   2.449       .  S
O262        C264   1.289       .  A
O263       Zr277   2.420       .  S
O263        C264   1.285       .  A
C264        C329   1.474       .  S
O265       Zr274   2.446       .  S
O265        C267   1.289       .  A
O266       Zr278   2.422       .  S
O266        C267   1.286       .  A
C267        C365   1.472       .  S
O268       Zr271   2.431       .  S
O268        C270   1.287       .  A
O269       Zr277   2.462       .  S
O269        C270   1.294       .  A
C270        C668   1.492       .  S
Zr271       O272   2.434       .  S
Zr271       O985   2.435       .  S
Zr271       O279   2.360       .  S
Zr271       O280   2.375       .  S
Zr271       O995   2.370       .  S
Zr271       O993   2.366       .  S
O272        H292   0.990       .  S
O272        H297   0.990       .  S
O273       Zr983   2.434   1_545  S
O273        H293   0.990       .  S
Zr274       O275   2.435       .  S
Zr274      O1700   2.433       .  S
Zr274       O280   2.367       .  S
Zr274       O279   2.372       .  S
Zr274      O1708   2.378       .  S
Zr274      O1706   2.372       .  S
O275        H291   0.990       .  S
O276      Zr1698   2.435   1_455  S
O276        H290   0.990       .  S
O276        H300   0.990       .  S
Zr277       O952   2.416       .  S
Zr277      O1670   2.471       .  S
Zr277       O280   2.389       .  S
Zr277      O2393   2.386       .  S
Zr277      O1706   2.389       .  S
Zr277       O995   2.392       .  S
Zr278      O1667   2.415       .  S
Zr278       O961   2.430       .  S
Zr278       O972   2.407       .  S
Zr278       O279   2.386       .  S
Zr278      O2394   2.379       .  S
Zr278       O993   2.378       .  S
Zr278      O1708   2.382       .  S
O279        H287   0.966       .  S
O281       Zr983   2.370   1_545  S
O281       Zr990   2.382   1_545  S
O282      Zr1698   2.369   1_455  S
O282      Zr1701   2.391       .  S
O282        H286   0.967       .  S
O283       Zr983   2.368   1_545  S
O283       Zr989   2.392   1_545  S
O283        H288   0.964       .  S
O284      Zr1698   2.378   1_455  S
O284      Zr1702   2.381       .  S
C301        C302   1.417       .  A
C301        C306   1.407       .  A
C301       C1864   1.493       .  S
C302        C303   1.407       .  A
C302        C368   1.490       .  S
C303        C304   1.405       .  A
C303        H308   1.085       .  S
C304        C305   1.416       .  A
C304        C356   1.487       .  S
C305        C306   1.408       .  A
C305        C428   1.493       .  S
C306        H307   1.084       .  S
C309        C310   1.412       .  A
C309        C314   1.402       .  A
C309        C413   1.483       .  S
C310        C311   1.401       .  A
C310        C389   1.478       .  S
C311        C312   1.400       .  A
C311        H316   1.085       .  S
C312        C313   1.413       .  A
C312        C380   1.482       .  S
C313        C314   1.404       .  A
C313        C404   1.480       .  S
C314        H315   1.085       .  S
C317        C318   1.534       .  S
C317        C323   1.530       .  S
C317       C1745   1.540       .  S
C317        C344   1.536       .  S
C318        H325   1.086       .  S
C318        C319   1.365       .  D
C319       C1744   1.545       .  S
C319        C461   1.490       .  S
C320        C324   1.553       .  S
C320        C322   1.554   1_655  S
C320       C1743   1.546       .  S
C320       H1750   1.110       .  S
C321       C1741   1.537   1_455  S
C321        H327   1.080       .  S
C321        C322   1.366       .  D
C322        C449   1.502       .  S
C323        H328   1.087       .  S
C323       C1748   1.362       .  D
C324       C1747   1.360       .  D
C324       C1756   1.481       .  S
H326       C1744   1.110       .  S
C329        C334   1.412       .  A
C329       C1754   1.403       .  A
C330        C331   1.401       .  A
C330       C1753   1.404   1_455  A
C330        H339   1.084       .  S
C331       C1756   1.411   1_455  A
C331        S335   1.800       .  S
C332       C1748   1.482       .  S
C332        C333   1.404       .  A
C332       C1755   1.414       .  A
C333        C334   1.399       .  A
C333        H340   1.084       .  S
C334        S336   1.806       .  S
S335        H338   1.405       .  S
S336        H337   1.403       .  S
C341        C342   1.401       .  A
C341       C1770   1.407       .  A
C342        C343   1.401       .  A
C342        H351   1.083       .  S
C343        C344   1.421       .  A
C343        S347   1.812       .  S
C344       C1769   1.414       .  A
C345        C346   1.397       .  A
C345       C1768   1.414   1_455  A
C345        H352   1.077       .  S
C346       C1765   1.407       .  A
C346        S348   1.805       .  S
S347        H350   1.407       .  S
S348        H349   1.406       .  S
C353        C354   1.404   1_455  A
C353        C358   1.411       .  A
C354        C355   1.404       .  A
C354        H363   1.083       .  S
C355        C356   1.414   1_655  A
C355        S359   1.801       .  S
C356        C357   1.404       .  A
C357        C358   1.400       .  A
C357        H364   1.084       .  S
C358        S360   1.804       .  S
S359        H362   1.405       .  S
S360        H361   1.405       .  S
C365        C370   1.411       .  A
C365       C1790   1.402       .  A
C366        C367   1.401       .  A
C366       C1789   1.403   1_455  A
C366        H375   1.083       .  S
C367        C368   1.415       .  A
C367        S371   1.800       .  S
C368       C1793   1.406   1_455  A
C369        C370   1.400       .  A
C369       C1792   1.406       .  A
C369        H376   1.084       .  S
C370        S372   1.804       .  S
S371        H374   1.406       .  S
S372        H373   1.407       .  S
C377        C382   1.409       .  A
C377       C1090   1.403       .  A
C377        C956   1.469       .  S
C378        C379   1.401       .  A
C378       C1089   1.403   1_545  A
C378        H387   1.083       .  S
C379       C1092   1.413   1_545  A
C379        S383   1.800       .  S
C380        C381   1.404       .  A
C380       C1091   1.413       .  A
C381        C382   1.398       .  A
C381        H388   1.084       .  S
C382        S384   1.806       .  S
S383        H386   1.406       .  S
S384        H385   1.405       .  S
C389        C394   1.413       .  A
C389       C1102   1.403       .  A
C390        C391   1.394       .  A
C390       C1101   1.403   1_545  A
C390        H399   1.084       .  S
C391       C1104   1.408   1_545  A
C391        S395   1.805       .  S
C392        C393   1.403       .  A
C392       C1103   1.409       .  A
C393        C394   1.400       .  A
C393        H400   1.084       .  S
C394        S396   1.801       .  S
S395        H398   1.406       .  S
S396        H397   1.405       .  S
C401        C406   1.411       .  A
C401       C1114   1.400       .  A
C401        C900   1.466       .  S
C402        C403   1.393       .  A
C402       C1113   1.399       .  A
C402        H411   1.084       .  S
C403       C1116   1.417       .  A
C403        S407   1.809       .  S
C404        C405   1.404       .  A
C404       C1115   1.416       .  A
C405        C406   1.397       .  A
C405        H412   1.083       .  S
C406        S408   1.803       .  S
S407        H410   1.403       .  S
S408        H409   1.406       .  S
C413        C418   1.416       .  A
C413       C1126   1.405       .  A
C414        C415   1.404       .  A
C414       C1125   1.407   1_545  A
C414        H423   1.083       .  S
C415       C1128   1.414   1_545  A
C415        S419   1.805       .  S
C416        C417   1.401       .  A
C416       C1127   1.412       .  A
C417        C418   1.394       .  A
C417        H424   1.085       .  S
C418        S420   1.808       .  S
S419        H422   1.406       .  S
S420        H421   1.402       .  S
C425        C430   1.414       .  A
C425       C1850   1.401   1_455  A
C425       C1606   1.476       .  S
C426        C427   1.399       .  A
C426       C1849   1.401       .  A
C426        H435   1.084       .  S
C427       C1852   1.418       .  A
C427        S431   1.806       .  S
C428        C429   1.407       .  A
C428       C1851   1.418   1_455  A
C429        C430   1.403       .  A
C429        H436   1.082       .  S
C430        S432   1.805       .  S
S431        H434   1.404       .  S
S432        H433   1.406       .  S
C437        C442   1.415       .  A
C437       C1862   1.401       .  A
C438        C439   1.397       .  A
C438       C1861   1.401       .  A
C438        H447   1.084       .  S
C439       C1864   1.417       .  A
C439        S443   1.808       .  S
C440        C441   1.408       .  A
C440       C1863   1.418       .  A
C440       C1725   1.495       .  S
C441        C442   1.407       .  A
C441        H448   1.083       .  S
C442        S444   1.804       .  S
S443        H446   1.403       .  S
S444        H445   1.406       .  S
C449        C450   1.406       .  A
C449        C454   1.423       .  A
C450        C451   1.408       .  A
C450        H459   1.081       .  S
C451        C452   1.418       .  A
C451        S455   1.804       .  S
C452        C453   1.396       .  A
C453        C454   1.395       .  A
C453        H460   1.084       .  S
C454        S456   1.806       .  S
S455        H458   1.402       .  S
S456        H457   1.403       .  S
C461        C462   1.406       .  A
C461        C466   1.414       .  A
C462        C463   1.408       .  A
C462        H471   1.084       .  S
C463        C464   1.415       .  A
C463        S467   1.805       .  S
C464        C465   1.401       .  A
C465        C466   1.400       .  A
C465        H472   1.084       .  S
C466        S468   1.807       .  S
S467        H470   1.404       .  S
S468        H469   1.407       .  S
C473        C474   1.408       .  A
C473        C478   1.418       .  A
C474        C475   1.408       .  A
C474        H483   1.083       .  S
C475        C476   1.417       .  A
C475        S479   1.804       .  S
C476        C477   1.403       .  A
C477        C478   1.401       .  A
C477        H484   1.084       .  S
C478        S480   1.807       .  S
S479        H482   1.406       .  S
S480        H481   1.403       .  S
C485        C486   1.400       .  A
C485        C490   1.411       .  A
C486        C487   1.397       .  A
C486        H495   1.079       .  S
C487        C488   1.410       .  A
C487        S491   1.801       .  S
C488        C489   1.405       .  A
C489        C490   1.398       .  A
C489        H496   1.084       .  S
C490        S492   1.806       .  S
S491        H494   1.406       .  S
S492        H493   1.405       .  S
C497        C498   1.404       .  A
C497        C502   1.411       .  A
C498        C499   1.401       .  A
C498        H507   1.084       .  S
C499        C500   1.414       .  A
C499        S503   1.805       .  S
C500        C501   1.401       .  A
C501        C502   1.399       .  A
C501        H508   1.080       .  S
C502        S504   1.800       .  S
S503        H506   1.402       .  S
S504        H505   1.406       .  S
C509        C510   1.407       .  A
C509        C514   1.418       .  A
C510        C511   1.405       .  A
C510        H519   1.083       .  S
C511        C512   1.415       .  A
C511        S515   1.803       .  S
C512        C513   1.403       .  A
C513        C514   1.400       .  A
C513        H520   1.084       .  S
C514        S516   1.808       .  S
S515        H518   1.406       .  S
S516        H517   1.403       .  S
C521        C522   1.400       .  A
C521       C1950   1.413       .  A
C522        C523   1.394       .  A
C522        H531   1.085       .  S
C523        C524   1.416       .  A
C523        S527   1.808       .  S
C524       C1464   1.482       .  S
C524       C1949   1.404       .  A
C525        C526   1.398       .  A
C525       C1948   1.404   1_455  A
C525        H532   1.085       .  S
C526       C1945   1.412       .  A
C526        S528   1.806       .  S
S527        H530   1.400       .  S
S528        H529   1.402       .  S
C533        C534   1.406       .  A
C533       C1962   1.413       .  A
C534        C535   1.410       .  A
C534        H543   1.082       .  S
C535        C536   1.423       .  A
C535        S539   1.808       .  S
C536       C1457   1.542       .  S
C536       C1961   1.410       .  A
C537        C538   1.398       .  A
C537       C1960   1.411   1_455  A
C537        H544   1.081       .  S
C538       C1957   1.412       .  A
C538        S540   1.810       .  S
S539        H542   1.407       .  S
S540        H541   1.407       .  S
C545        C546   1.410       .  A
C545        C550   1.424       .  A
C546        C547   1.407       .  A
C546        H555   1.083       .  S
C547        C548   1.414       .  A
C547        S551   1.806       .  S
C548        C549   1.398       .  A
C549        C550   1.400       .  A
C549        H556   1.085       .  S
C550        S552   1.804       .  S
S551        H554   1.402       .  S
S552        H553   1.400       .  S
C557        C558   1.406       .  A
C557        C562   1.407       .  A
C558        C559   1.406       .  A
C558        H567   1.080       .  S
C559        C560   1.414       .  A
C559        S563   1.803       .  S
C560        C561   1.405       .  A
C561        C562   1.395       .  A
C561        H568   1.084       .  S
C562        S564   1.796       .  S
S563        H566   1.407       .  S
S564        H565   1.405       .  S
C569        C574   1.411       .  A
C569       C1282   1.406       .  A
C570        C571   1.404       .  A
C570       C1281   1.404   1_545  A
C570        H579   1.084       .  S
C571       C1284   1.414   1_545  A
C571        S575   1.803       .  S
C572        C573   1.404       .  A
C572       C1283   1.416       .  A
C573        C574   1.396       .  A
C573        H580   1.084       .  S
C574        S576   1.797       .  S
S575        H578   1.406       .  S
S576        H577   1.403       .  S
C581        C582   1.398       .  A
C581       C1298   1.409       .  A
C582        C583   1.401       .  A
C582        H591   1.084       .  S
C583        C584   1.423       .  A
C583        S587   1.810       .  S
C584       C1297   1.406       .  A
C585        C586   1.405       .  A
C585       C1296   1.408   1_545  A
C585        H592   1.080       .  S
C586       C1293   1.409       .  A
C586        S588   1.800       .  S
S587        H590   1.407       .  S
S588        H589   1.405       .  S
C593        C594   1.401       .  A
C593        C598   1.414       .  A
C594        C595   1.396       .  A
C594        H603   1.084       .  S
C595        C596   1.416       .  A
C595        S599   1.806       .  S
C596        C597   1.403       .  A
C597        C598   1.408       .  A
C597        H604   1.079       .  S
C598        S600   1.804       .  S
S599        H602   1.405       .  S
S600        H601   1.407       .  S
C605        C606   1.413       .  A
C605        C610   1.428       .  A
C606        C607   1.397       .  A
C606        H615   1.074       .  S
C607        C608   1.407       .  A
C607        S611   1.802       .  S
C608        C609   1.399       .  A
C609        C610   1.405       .  A
C609        H616   1.083       .  S
C610        S612   1.812       .  S
S611        H614   1.407       .  S
S612        H613   1.407       .  S
C617        C618   1.402       .  A
C617        C622   1.408       .  A
C618        C619   1.402       .  A
C618        H627   1.083       .  S
C619        C620   1.413       .  A
C619        S623   1.801       .  S
C620        C621   1.404       .  A
C621        C622   1.394       .  A
C621        H628   1.084       .  S
C622        S624   1.804       .  S
S623        H626   1.405       .  S
S624        H625   1.407       .  S
C629        C630   1.401       .  A
C629        C634   1.418       .  A
C630        C631   1.395       .  A
C630        H639   1.082       .  S
C631        C632   1.413       .  A
C631        S635   1.797       .  S
C632        C633   1.400       .  A
C633        C634   1.395       .  A
C633        H640   1.084       .  S
C634        S636   1.806       .  S
S635        H638   1.407       .  S
S636        H637   1.405       .  S
C641        C642   1.400       .  A
C641        C646   1.411       .  A
C642        C643   1.394       .  A
C642        H651   1.084       .  S
C643        C644   1.416       .  A
C643        S647   1.807       .  S
C644        C645   1.403       .  A
C645        C646   1.396       .  A
C645        H652   1.083       .  S
C646        S648   1.800       .  S
S647       H2074   1.405       .  S
S648        H649   1.406       .  S
H650       S2071   1.404       .  S
C653        C654   1.404       .  A
C653        C658   1.413       .  A
C654        C655   1.394       .  A
C654        H663   1.084       .  S
C655        C656   1.408       .  A
C655        S659   1.805       .  S
C656        C657   1.403       .  A
C657        C658   1.400       .  A
C657        H664   1.083       .  S
C658        S660   1.802       .  S
S659        H662   1.407       .  S
S660        H661   1.405       .  S
C665        C666   1.406       .  A
C665       C1382   1.410       .  A
C666        C667   1.408       .  A
C666        H675   1.084       .  S
C667        C668   1.417       .  A
C667        S671   1.802       .  S
C668       C1381   1.409       .  A
C669        C670   1.402       .  A
C669       C1380   1.407       .  A
C669        H676   1.084       .  S
C670       C1377   1.414       .  A
C670        S672   1.805       .  S
S671        H674   1.402       .  S
S672        H673   1.407       .  S
C677        C678   1.406       .  A
C677       C1394   1.426       .  A
C678        C679   1.402       .  A
C678        H687   1.083       .  S
C679        C680   1.419       .  A
C679        S683   1.805       .  S
C680       C1393   1.398       .  A
C681        C682   1.405       .  A
C681       C1392   1.397       .  A
C681        H688   1.082       .  S
C682       C1389   1.429       .  A
C682        S684   1.810       .  S
S683        H686   1.407       .  S
S684        H685   1.407       .  S
C689        C690   1.415       .  A
C689        C694   1.428       .  A
C690        C691   1.396       .  A
C690        H699   1.080       .  S
C691        C692   1.406       .  A
C691        S695   1.810       .  S
C692        C693   1.398       .  A
C693        C694   1.400       .  A
C693        H700   1.085       .  S
C694        S696   1.804       .  S
S695        H698   1.402       .  S
S696        H697   1.399       .  S
C701        C702   1.401       .  A
C701        C706   1.410       .  A
C702        C703   1.401       .  A
C702        H711   1.084       .  S
C703        C704   1.415       .  A
C703        S707   1.801       .  S
C704        C705   1.401       .  A
C705        C706   1.398       .  A
C705        H712   1.083       .  S
C706        S708   1.805       .  S
S707        H710   1.404       .  S
S708       H1421   1.407       .  S
H709       S1420   1.407       .  S
C713        C714   1.542       .  S
C713        C719   1.532       .  S
C713        C717   1.540       .  S
C713       C1401   1.538       .  S
C714        H721   1.084       .  S
C715        C716   1.552   1_545  S
C715       C1392   1.496   1_545  S
C716        C720   1.540       .  S
C716        C718   1.547   1_565  S
C716        H722   1.110       .  S
C717        H723   1.084       .  S
C718       C1377   1.490       .  S
C720       C1413   1.487       .  S
C725        C726   1.411   1_556  A
C725       C2154   1.400       .  A
C725       C1365   1.477       .  S
C726       C2151   1.399       .  A
C726       C1341   1.479       .  S
C727       C2150   1.402       .  A
C727        C728   1.398   1_655  A
C727        H732   1.085       .  S
C728        C729   1.410   1_554  A
C728       C1332   1.476       .  S
C729        C730   1.400   1_455  A
C729       C1356   1.479       .  S
C730       C2149   1.398       .  A
C730        H731   1.085       .  S
C733        C734   1.533       .  S
C733        C739   1.527       .  S
C733        C737   1.545       .  S
C733       C1317   1.536       .  S
C734        H741   1.083       .  S
C734        C735   1.369       .  D
C735       C1296   1.506       .  S
C736        C740   1.549       .  S
C736        H742   1.110       .  S
C737        H743   1.080       .  S
C737        C738   1.361       .  D
C738       C1281   1.477       .  S
C739        H744   1.087       .  S
C740       C1308   1.495       .  S
C745       C2170   1.542       .  S
C745        C751   1.535       .  S
C745        C749   1.529   1_655  S
C745       C2672   1.535   1_655  S
C746       C2169   1.544       .  S
C746        H753   1.085       .  S
C746        C747   1.369       .  D
C747       C2172   1.539       .  S
C747       C1269   1.484       .  S
C748       C2171   1.545       .  S
C748        C752   1.547       .  S
C748        C750   1.553   1_655  S
C748        H754   1.109       .  S
C749        H755   1.084       .  S
C749        C750   1.365       .  D
C750       C1257   1.501       .  S
C751        H756   1.086       .  S
C751        C752   1.358       .  D
C752       C2660   1.481       .  S
C757        C758   1.415   1_554  A
C757       C1200   1.479       .  S
C758       C1221   1.498       .  S
C759        C760   1.404       .  A
C759        H764   1.085       .  S
C760        C761   1.413   1_556  A
C760       C1209   1.475       .  S
C761        C762   1.402       .  A
C761       C1185   1.493       .  S
C762        H763   1.085       .  S
O765       Zr777   2.440       .  S
O765        C767   1.288       .  A
O766       Zr803   2.411       .  S
O766        C767   1.283       .  A
C767       C1368   1.464       .  S
O768       Zr780   2.433       .  S
O768        C770   1.287       .  A
O769       Zr804   2.414       .  S
O769        C770   1.285       .  A
C770       C1320   1.467       .  S
O771       Zr780   2.441       .  S
O771        C773   1.288       .  A
O772       Zr803   2.445       .  S
O772        C773   1.290       .  A
C773       C1224   1.484       .  S
O774       Zr777   2.431       .  S
O774        C776   1.286       .  A
O775       Zr804   2.443       .  S
O775        C776   1.290       .  A
C776       C1272   1.483       .  S
Zr777       O778   2.435       .  S
Zr777       O779   2.435       .  S
Zr777       O783   2.366       .  S
Zr777       O784   2.366       .  S
Zr777       O807   2.374       .  S
Zr777       O809   2.366       .  S
O778        H821   0.990       .  S
O779        H820   0.990       .  S
O779        H824   0.990       .  S
Zr780       O781   2.436       .  S
Zr780       O782   2.434       .  S
Zr780       O784   2.369       .  S
Zr780       O783   2.366       .  S
Zr780       O808   2.364       .  S
Zr780       O810   2.373       .  S
O781        H822   0.990       .  S
O781        H825   0.990       .  S
O782        H815   0.989       .  S
O783       Zr803   2.380       .  S
O784       Zr804   2.391       .  S
O784        H811   0.967       .  S
O785       Zr797   2.454       .  S
O785        C787   1.291       .  A
O786       Zr804   2.433       .  S
O786        C787   1.287       .  A
C787       C1305   1.490       .  S
O788       Zr800   2.441       .  S
O788        C790   1.288       .  A
O789       Zr803   2.417       .  S
O789        C790   1.285       .  A
C790       C1353   1.470       .  S
O791       Zr800   2.428       .  S
O791        C793   1.284       .  A
O792       Zr804   2.441       .  S
O792        C793   1.289       .  A
C793       C1260   1.469       .  S
O794       Zr797   2.438       .  S
O794        C796   1.287       .  A
O795       Zr803   2.428       .  S
O795        C796   1.287       .  A
C796       C1212   1.467       .  S
Zr797       O798   2.434       .  S
Zr797       O799   2.434       .  S
Zr797       O805   2.369       .  S
Zr797       O806   2.380       .  S
Zr797       O809   2.374       .  S
Zr797       O807   2.369       .  S
O798        H818   0.990       .  S
O798        H823   0.990       .  S
O799        H819   0.990       .  S
Zr800       O801   2.436       .  S
Zr800       O802   2.436       .  S
Zr800       O806   2.368       .  S
Zr800       O805   2.379       .  S
Zr800       O810   2.373       .  S
Zr800       O808   2.370       .  S
O801        H817   0.990       .  S
O802        H816   0.990       .  S
O802        H826   0.990       .  S
Zr803       O806   2.384       .  S
Zr803       O808   2.380       .  S
Zr803       O809   2.387       .  S
Zr804       O805   2.386       .  S
Zr804       O807   2.380       .  S
Zr804       O810   2.388       .  S
O805        H813   0.965       .  S
O808        H812   0.966       .  S
O809        H814   0.963       .  S
O827       Zr839   2.437       .  S
O827        C829   1.287       .  A
O828       Zr865   2.447       .  S
O828        C829   1.290       .  A
C829       C1176   1.477       .  S
O830       Zr842   2.426       .  S
O830        C832   1.284       .  A
O831       Zr866   2.430       .  S
O831        C832   1.287       .  A
C832       C1197   1.464       .  S
O833       Zr842   2.438       .  S
O833        C835   1.288       .  A
O834       Zr865   2.430       .  S
O834        C835   1.287       .  A
C835       C1416   1.484       .  S
O836       Zr839   2.442       .  S
O836        C838   1.288       .  A
O837       Zr866   2.409       .  S
O837        C838   1.283       .  A
C838       C1344   1.471       .  S
Zr839       O840   2.434       .  S
Zr839       O841   2.437       .  S
Zr839       O845   2.376       .  S
Zr839       O846   2.369       .  S
Zr839       O869   2.368       .  S
Zr839       O871   2.365       .  S
O840        H883   0.990       .  S
O841        H882   0.990       .  S
O841        H886   0.990       .  S
Zr842       O843   2.435       .  S
Zr842       O844   2.433       .  S
Zr842       O846   2.370       .  S
Zr842       O845   2.365       .  S
Zr842       O870   2.369       .  S
Zr842       O872   2.374       .  S
O843        H884   0.990       .  S
O843        H887   0.990       .  S
O844        H877   0.990       .  S
O845       Zr865   2.385       .  S
O846       Zr866   2.386       .  S
O846        H873   0.966       .  S
O847       Zr859   2.450       .  S
O847        C849   1.290       .  A
O848       Zr866   2.434       .  S
O848        C849   1.288       .  A
C849       C1188   1.483       .  S
O850       Zr862   2.423       .  S
O850        C852   1.284       .  A
O851       Zr865   2.466       .  S
O851        C852   1.294       .  A
C852       C1164   1.477       .  S
O853       Zr862   2.444       .  S
O853        C855   1.288       .  A
O854       Zr866   2.416       .  S
O854        C855   1.283       .  A
C855       C1329   1.464       .  S
O856       Zr859   2.450       .  S
O856        C858   1.289       .  A
O857       Zr865   2.419       .  S
O857        C858   1.285       .  A
C858       C1404   1.465       .  S
Zr859       O860   2.436       .  S
Zr859       O861   2.434       .  S
Zr859       O867   2.362       .  S
Zr859       O868   2.375       .  S
Zr859       O871   2.369       .  S
Zr859       O869   2.376       .  S
O860        H880   0.990       .  S
O860        H885   0.990       .  S
O861        H881   0.990       .  S
Zr862       O863   2.434       .  S
Zr862       O864   2.435       .  S
Zr862       O868   2.380       .  S
Zr862       O867   2.367       .  S
Zr862       O872   2.361       .  S
Zr862       O870   2.377       .  S
O863        H879   0.990       .  S
O864        H878   0.990       .  S
O864        H888   0.990       .  S
Zr865       O868   2.391       .  S
Zr865       O870   2.384       .  S
Zr865       O871   2.394       .  S
Zr866       O867   2.383       .  S
Zr866       O869   2.385       .  S
Zr866       O872   2.380       .  S
O867        H875   0.965       .  S
O870        H874   0.967       .  S
O871        H876   0.964       .  S
O889       Zr901   2.443       .  S
O889        C891   1.287       .  A
O890      Zr2351   2.452       .  S
O890        C891   1.291       .  A
C891       C1293   1.479       .  S
O892       Zr904   2.453       .  S
O892        C894   1.290       .  A
O893        C894   1.287       .  A
C894       C2561   1.484       .  S
O895       Zr904   2.444       .  S
O895        C897   1.289       .  A
O896        C897   1.284       .  A
C897       C1233   1.467       .  S
O898       Zr901   2.441       .  S
O899      Zr2352   2.413       .  S
Zr901       O903   2.437   1_545  S
Zr901       O931   2.374   1_545  S
Zr901       O933   2.373   1_545  S
O902        H945   0.990       .  S
O903        H944   0.990       .  S
O903        H948   0.990       .  S
Zr904      O2329   2.436       .  S
Zr904       O906   2.433       .  S
Zr904      O2332   2.367       .  S
Zr904      O2331   2.371       .  S
Zr904       O932   2.377       .  S
Zr904       O934   2.374       .  S
O905      Zr2328   2.436       .  S
O905        H946   0.990       .  S
O905        H949   0.990       .  S
O906        H939   0.990       .  S
O907      Zr2328   2.376       .  S
O907      Zr1639   2.388       .  S
O908      Zr2328   2.371       .  S
O908      Zr1640   2.390       .  S
O908        H935   0.966       .  S
O909       Zr921   2.435       .  S
O909        C911   1.287       .  A
O910       Zr928   2.434   1_565  S
O910        C911   1.287       .  A
C911       C1149   1.475       .  S
O912       Zr924   2.431   1_565  S
O912        C914   1.287       .  A
O913       Zr927   2.429   1_565  S
O913        C914   1.287       .  A
C914       C1284   1.472       .  S
O915       Zr924   2.436       .  S
O915        C917   1.287       .  A
C917       C1128   1.473   1_545  S
O918       Zr921   2.432       .  S
O918        C920   1.285       .  A
O919       Zr927   2.435   1_565  S
O919        C920   1.288       .  A
C920       C1245   1.494       .  S
Zr921       O922   2.435       .  S
Zr921      O2347   2.435       .  S
Zr921       O929   2.368       .  S
Zr921       O930   2.370       .  S
Zr921      O2357   2.367       .  S
Zr921      O2355   2.363       .  S
O922        H942   0.990       .  S
O922        H947   0.990       .  S
O923      Zr2345   2.433       .  S
O923        H943   0.990       .  S
Zr924       O925   2.434   1_545  S
Zr924       O930   2.373   1_545  S
Zr924       O929   2.366   1_545  S
O925        H941   0.990       .  S
O926        H940   0.990       .  S
O926        H950   0.990       .  S
Zr927      O2314   2.434       .  S
Zr927      O1619   2.390       .  S
Zr927       O930   2.385   1_545  S
Zr927      O2357   2.386   1_545  S
Zr928      O2323   2.404       .  S
Zr928      O1620   2.391       .  S
Zr928       O929   2.380   1_545  S
Zr928      O2355   2.381   1_545  S
O929        H937   0.967       .  S
O931      Zr2345   2.369       .  S
O931      Zr2352   2.381   1_565  S
O932        H936   0.965       .  S
O933      Zr2345   2.364       .  S
O933      Zr2351   2.390   1_565  S
O933        H938   0.964       .  S
O951       Zr963   2.435       .  S
O951        C953   1.287       .  A
O952        C953   1.285       .  A
C953       C1053   1.467       .  S
O954       Zr966   2.454       .  S
O955      Zr2414   2.417       .  S
O957       Zr966   2.423       .  S
O957        C959   1.283       .  A
O958      Zr2413   2.469   1_455  S
O958        C959   1.296       .  A
C959       C1389   1.505       .  S
O960       Zr963   2.441       .  S
O960       C2386   1.289       .  A
O961       C2386   1.286       .  A
C962       C1065   1.470       .  S
C962       O2384   1.287       .  A
C962       O2385   1.286       .  A
Zr963      O2388   2.435       .  S
Zr963       O965   2.436       .  S
Zr963      O2393   2.375       .  S
Zr963      O2394   2.368       .  S
Zr963       O993   2.368       .  S
Zr963       O995   2.365       .  S
O964      Zr2387   2.434       .  S
O964       H1007   0.990       .  S
O965       H1006   0.990       .  S
O965       H1010   0.990       .  S
Zr966       O968   2.433       .  S
Zr966       O994   2.380       .  S
Zr966       O996   2.363       .  S
O967       H1008   0.990       .  S
O967       H1011   0.990       .  S
O968       H1001   0.990       .  S
O969      Zr2387   2.371       .  S
O969      Zr1701   2.389       .  S
O970      Zr2387   2.366       .  S
O970      Zr1702   2.379       .  S
O970        H997   0.965       .  S
O971       Zr983   2.434   1_545  S
O971        C973   1.286   1_545  A
C973       C1104   1.460       .  S
O974       Zr986   2.448       .  S
O974        C976   1.290       .  A
O975       Zr989   2.423       .  S
O975        C976   1.286       .  A
C976       C1041   1.475       .  S
O977       Zr986   2.452       .  S
O977        C979   1.290       .  A
O978       Zr990   2.428       .  S
O978        C979   1.287       .  A
C979       C1077   1.476       .  S
O980       Zr983   2.432       .  S
O980        C982   1.286       .  A
O981       Zr989   2.463       .  S
O981        C982   1.293       .  A
C982       C1380   1.490   1_565  S
Zr983       O984   2.436       .  S
Zr983       O991   2.366       .  S
Zr983       O992   2.371       .  S
O984       H1004   0.990       .  S
O984       H1009   0.990       .  S
O985       H1005   0.990       .  S
Zr986       O987   2.434       .  S
Zr986      O2412   2.434       .  S
Zr986       O992   2.373       .  S
Zr986       O991   2.370       .  S
Zr986      O2420   2.376       .  S
Zr986      O2418   2.369       .  S
O987       H1003   0.990       .  S
O988      Zr2410   2.435   1_455  S
O988       H1002   0.990       .  S
O988       H1012   0.990       .  S
Zr989      O2382   2.462       .  S
Zr989      O1681   2.389   1_565  S
Zr989       O992   2.387       .  S
Zr989      O2418   2.389       .  S
Zr990      O2379   2.419       .  S
Zr990      O1682   2.384   1_565  S
Zr990       O991   2.388       .  S
Zr990      O2420   2.380       .  S
O991        H999   0.966       .  S
O994      Zr2410   2.371   1_455  S
O994      Zr2413   2.395   1_455  S
O994        H998   0.966       .  S
O995       H1000   0.963       .  S
O996      Zr2410   2.377   1_455  S
O996      Zr2414   2.380       .  S
C1013      C1014   1.418       .  A
C1013      C1018   1.406   1_455  A
C1013      C2576   1.491       .  S
C1014      C1015   1.404       .  A
C1014      C1080   1.486       .  S
C1015      C1016   1.402       .  A
C1015      H1020   1.085       .  S
C1016      C1017   1.413   1_455  A
C1016      C1068   1.482       .  S
C1017      C1018   1.404       .  A
C1017      C1140   1.488       .  S
C1018      H1019   1.084       .  S
C1021      C1022   1.411       .  A
C1021      C1026   1.399       .  A
C1021      C1125   1.487       .  S
C1022      C1023   1.403       .  A
C1022      C1101   1.474       .  S
C1023      C1024   1.401       .  A
C1023      H1028   1.085       .  S
C1024      C1025   1.414   1_565  A
C1024      C1092   1.485       .  S
C1025      C1026   1.403   1_545  A
C1025      C1116   1.479       .  S
C1026      H1027   1.085       .  S
C1029      C1030   1.536       .  S
C1029      C1035   1.529       .  S
C1029      C2457   1.541       .  S
C1029      C1056   1.535       .  S
C1030      H1037   1.086       .  S
C1030      C1031   1.366       .  D
C1031      C2456   1.547       .  S
C1031      C1173   1.493       .  S
C1032      C2455   1.547       .  S
C1032      C1036   1.549       .  S
C1032      C1034   1.548   1_655  S
C1032      H2462   1.110       .  S
C1033      C2453   1.539   1_455  S
C1033      H1039   1.080       .  S
C1033      C1034   1.366       .  D
C1034      C1161   1.497       .  S
C1035      H1040   1.087       .  S
C1035      C2460   1.360       .  D
C1036      C2459   1.362       .  D
C1036      C2468   1.481       .  S
H1038      C2456   1.110       .  S
C1041      C2466   1.402       .  A
C1041      C1046   1.412       .  A
C1042      C2465   1.404   1_455  A
C1042      C1043   1.402       .  A
C1042      H1051   1.084       .  S
C1043      C2468   1.412   1_455  A
C1043      S1047   1.801       .  S
C1044      C2460   1.484       .  S
C1044      C2467   1.414       .  A
C1044      C1045   1.406       .  A
C1045      C1046   1.401       .  A
C1045      H1052   1.084       .  S
C1046      S1048   1.805       .  S
S1047      H1050   1.405       .  S
S1048      H1049   1.405       .  S
C1053      C1054   1.399       .  A
C1053      C2482   1.405       .  A
C1054      C1055   1.400       .  A
C1054      H1063   1.083       .  S
C1055      C1056   1.423       .  A
C1055      S1059   1.812       .  S
C1056      C2481   1.414       .  A
C1057      C2480   1.417   1_455  A
C1057      C1058   1.401       .  A
C1057      H1064   1.076       .  S
C1058      C2477   1.407       .  A
C1058      S1060   1.806       .  S
S1059      H1062   1.407       .  S
S1060      H1061   1.406       .  S
C1065      C1066   1.402   1_455  A
C1065      C1070   1.411       .  A
C1066      C1067   1.400       .  A
C1066      H1075   1.083       .  S
C1067      C1068   1.412   1_655  A
C1067      S1071   1.801       .  S
C1068      C1069   1.404       .  A
C1069      C1070   1.399       .  A
C1069      H1076   1.084       .  S
C1070      S1072   1.805       .  S
S1071      H1074   1.406       .  S
S1072      H1073   1.405       .  S
C1077      C2502   1.403       .  A
C1077      C1082   1.412       .  A
C1078      C2501   1.405   1_455  A
C1078      C1079   1.402       .  A
C1078      H1087   1.083       .  S
C1079      C1080   1.413       .  A
C1079      S1083   1.801       .  S
C1080      C2505   1.405   1_455  A
C1081      C2504   1.405       .  A
C1081      C1082   1.401       .  A
C1081      H1088   1.084       .  S
C1082      S1084   1.805       .  S
S1083      H1086   1.406       .  S
S1084      H1085   1.405       .  S
C1089      C1094   1.411       .  A
C1090      C1091   1.401       .  A
C1090      H1099   1.084       .  S
C1091      S1095   1.801       .  S
C1092      C1093   1.405       .  A
C1093      C1094   1.399       .  A
C1093      H1100   1.084       .  S
C1094      S1096   1.805       .  S
S1095      H1098   1.406       .  S
S1096      H1097   1.405       .  S
C1101      C1106   1.412       .  A
C1102      C1103   1.395       .  A
C1102      H1111   1.084       .  S
C1103      S1107   1.805       .  S
C1104      C1105   1.401       .  A
C1105      C1106   1.397       .  A
C1105      H1112   1.084       .  S
C1106      S1108   1.801       .  S
S1107      H1110   1.406       .  S
S1108      H1109   1.405       .  S
C1113      C1118   1.413   1_545  A
C1114      C1115   1.395       .  A
C1114      H1123   1.084       .  S
C1115      S1119   1.807       .  S
C1116      C1117   1.404   1_545  A
C1117      C1118   1.400       .  A
C1117      H1124   1.083       .  S
C1118      S1120   1.803       .  S
S1119      H1122   1.403       .  S
S1120      H1121   1.407       .  S
C1125      C1130   1.416       .  A
C1126      C1127   1.401       .  A
C1126      H1135   1.083       .  S
C1127      S1131   1.804       .  S
C1128      C1129   1.400       .  A
C1129      C1130   1.393       .  A
C1129      H1136   1.085       .  S
C1130      S1132   1.807       .  S
S1131      H1134   1.406       .  S
S1132      H1133   1.403       .  S
C1137      C2562   1.401   1_455  A
C1137      C1142   1.413       .  A
C1137      C2318   1.476       .  S
C1138      C2561   1.402       .  A
C1138      C1139   1.401       .  A
C1138      H1147   1.084       .  S
C1139      C2564   1.420       .  A
C1139      S1143   1.806       .  S
C1140      C2563   1.417       .  A
C1140      C1141   1.405   1_655  A
C1141      C1142   1.402       .  A
C1141      H1148   1.083       .  S
C1142      S1144   1.804       .  S
S1143      H1146   1.404       .  S
S1144      H1145   1.406       .  S
C1149      C2574   1.401       .  A
C1149      C1154   1.413       .  A
C1150      C2573   1.401       .  A
C1150      C1151   1.396       .  A
C1150      H1159   1.084       .  S
C1151      C2576   1.418       .  A
C1151      S1155   1.808       .  S
C1152      C2575   1.416       .  A
C1152      C1153   1.406       .  A
C1152      C2437   1.485       .  S
C1153      C1154   1.404       .  A
C1153      H1160   1.084       .  S
C1154      S1156   1.804       .  S
S1155      H1158   1.404       .  S
S1156      H1157   1.406       .  S
C1161      C1162   1.406       .  A
C1161      C1166   1.419       .  A
C1162      C1163   1.409       .  A
C1162      H1171   1.081       .  S
C1163      C1164   1.417       .  A
C1163      S1167   1.802       .  S
C1164      C1165   1.396       .  A
C1165      C1166   1.394       .  A
C1165      H1172   1.083       .  S
C1166      S1168   1.804       .  S
S1167      H1170   1.404       .  S
S1168      H1169   1.401       .  S
C1173      C1174   1.407       .  A
C1173      C1178   1.418       .  A
C1174      C1175   1.406       .  A
C1174      H1183   1.084       .  S
C1175      C1176   1.413       .  A
C1175      S1179   1.805       .  S
C1176      C1177   1.401       .  A
C1177      C1178   1.401       .  A
C1177      H1184   1.084       .  S
C1178      S1180   1.808       .  S
S1179      H1182   1.405       .  S
S1180      H1181   1.407       .  S
C1185      C1186   1.407       .  A
C1185      C1190   1.417       .  A
C1186      C1187   1.406       .  A
C1186      H1195   1.083       .  S
C1187      C1188   1.415       .  A
C1187      S1191   1.804       .  S
C1188      C1189   1.402       .  A
C1189      C1190   1.399       .  A
C1189      H1196   1.084       .  S
C1190      S1192   1.806       .  S
S1191      H1194   1.406       .  S
S1192      H1193   1.403       .  S
C1197      C1198   1.398       .  A
C1197      C1202   1.411       .  A
C1198      C1199   1.395       .  A
C1198      H1207   1.079       .  S
C1199      C1200   1.411       .  A
C1199      S1203   1.801       .  S
C1200      C1201   1.405       .  A
C1201      C1202   1.400       .  A
C1201      H1208   1.084       .  S
C1202      S1204   1.807       .  S
S1203      H1206   1.405       .  S
S1204      H1205   1.405       .  S
C1209      C1210   1.402       .  A
C1209      C1214   1.412       .  A
C1210      C1211   1.397       .  A
C1210      H1219   1.084       .  S
C1211      C1212   1.411       .  A
C1211      S1215   1.805       .  S
C1212      C1213   1.401       .  A
C1213      C1214   1.399       .  A
C1213      H1220   1.081       .  S
C1214      S1216   1.803       .  S
S1215      H1218   1.401       .  S
S1216      H1217   1.404       .  S
C1221      C1222   1.408       .  A
C1221      C1226   1.419       .  A
C1222      C1223   1.407       .  A
C1222      H1231   1.083       .  S
C1223      C1224   1.413       .  A
C1223      S1227   1.803       .  S
C1224      C1225   1.403       .  A
C1225      C1226   1.401       .  A
C1225      H1232   1.084       .  S
C1226      S1228   1.807       .  S
S1227      H1230   1.407       .  S
S1228      H1229   1.402       .  S
C1233      C1234   1.398       .  A
C1233      C2662   1.412       .  A
C1234      C1235   1.393       .  A
C1234      H1243   1.085       .  S
C1235      C1236   1.417       .  A
C1235      S1239   1.809       .  S
C1236      C2176   1.477       .  S
C1236      C2661   1.404       .  A
C1237      C2660   1.405   1_455  A
C1237      C1238   1.401       .  A
C1237      H1244   1.085       .  S
C1238      C2657   1.412       .  A
C1238      S1240   1.805       .  S
S1239      H1242   1.399       .  S
S1240      H1241   1.403       .  S
C1245      C1246   1.409       .  A
C1245      C2674   1.417       .  A
C1246      C1247   1.411       .  A
C1246      H1255   1.082       .  S
C1247      C1248   1.421       .  A
C1247      S1251   1.809       .  S
C1248      C2169   1.539       .  S
C1248      C2673   1.408       .  A
C1249      C2672   1.409       .  A
C1249      C1250   1.395       .  A
C1249      H1256   1.081       .  S
C1250      C2669   1.409       .  A
C1250      S1252   1.809       .  S
S1251      H1254   1.406       .  S
S1252      H1253   1.406       .  S
C1257      C1258   1.410       .  A
C1257      C1262   1.427       .  A
C1258      C1259   1.405       .  A
C1258      H1267   1.082       .  S
C1259      C1260   1.412       .  A
C1259      S1263   1.807       .  S
C1260      C1261   1.396       .  A
C1261      C1262   1.396       .  A
C1261      H1268   1.085       .  S
C1262      S1264   1.807       .  S
S1263      H1266   1.403       .  S
S1264      H1265   1.398       .  S
C1269      C1270   1.406       .  A
C1269      C1274   1.406       .  A
C1270      C1271   1.406       .  A
C1270      H1279   1.081       .  S
C1271      C1272   1.415       .  A
C1271      S1275   1.804       .  S
C1272      C1273   1.406       .  A
C1273      C1274   1.396       .  A
C1273      H1280   1.084       .  S
C1274      S1276   1.797       .  S
S1275      H1278   1.407       .  S
S1276      H1277   1.406       .  S
C1281      C1286   1.411       .  A
C1282      C1283   1.409       .  A
C1282      H1291   1.083       .  S
C1283      S1287   1.802       .  S
C1284      C1285   1.401       .  A
C1285      C1286   1.393       .  A
C1285      H1292   1.084       .  S
C1286      S1288   1.802       .  S
S1287      H1290   1.407       .  S
S1288      H1289   1.403       .  S
C1293      C1294   1.399   1_545  A
C1294      C1295   1.404       .  A
C1294      H1303   1.084       .  S
C1295      C1296   1.425       .  A
C1295      S1299   1.811       .  S
C1297      C1298   1.404       .  A
C1297      H1304   1.080       .  S
C1298      S1300   1.798       .  S
S1299      H1302   1.407       .  S
S1300      H1301   1.405       .  S
C1305      C1306   1.402       .  A
C1305      C1310   1.416       .  A
C1306      C1307   1.397       .  A
C1306      H1315   1.084       .  S
C1307      C1308   1.418       .  A
C1307      S1311   1.807       .  S
C1308      C1309   1.404       .  A
C1309      C1310   1.412       .  A
C1309      H1316   1.079       .  S
C1310      S1312   1.806       .  S
S1311      H1314   1.406       .  S
S1312      H1313   1.407       .  S
C1317      C1318   1.415       .  A
C1317      C1322   1.425       .  A
C1318      C1319   1.399       .  A
C1318      H1327   1.071       .  S
C1319      C1320   1.405       .  A
C1319      S1323   1.810       .  S
C1320      C1321   1.396       .  A
C1321      C1322   1.399       .  A
C1321      H1328   1.083       .  S
C1322      S1324   1.813       .  S
S1323      H1326   1.407       .  S
S1324      H1325   1.406       .  S
C1329      C1330   1.401       .  A
C1329      C1334   1.408       .  A
C1330      C1331   1.400       .  A
C1330      H1339   1.082       .  S
C1331      C1332   1.413       .  A
C1331      S1335   1.801       .  S
C1332      C1333   1.402       .  A
C1333      C1334   1.393       .  A
C1333      H1340   1.084       .  S
C1334      S1336   1.803       .  S
S1335      H1338   1.406       .  S
S1336      H1337   1.406       .  S
C1341      C1342   1.401       .  A
C1341      C1346   1.416       .  A
C1342      C1343   1.396       .  A
C1342      H1351   1.083       .  S
C1343      C1344   1.413       .  A
C1343      S1347   1.796       .  S
C1344      C1345   1.400       .  A
C1345      C1346   1.395       .  A
C1345      H1352   1.084       .  S
C1346      S1348   1.807       .  S
S1347      H1350   1.406       .  S
S1348      H1349   1.403       .  S
C1353      C1354   1.402       .  A
C1353      C1358   1.411       .  A
C1354      C1355   1.395       .  A
C1354      H1363   1.084       .  S
C1355      C1356   1.415       .  A
C1355      S1359   1.807       .  S
C1356      C1357   1.403       .  A
C1357      C1358   1.396       .  A
C1357      H1364   1.082       .  S
C1358      S1360   1.800       .  S
S1359      H2786   1.404       .  S
S1360      H1361   1.405       .  S
H1362      S2783   1.404       .  S
C1365      C1366   1.403       .  A
C1365      C1370   1.413       .  A
C1366      C1367   1.393       .  A
C1366      H1375   1.084       .  S
C1367      C1368   1.408       .  A
C1367      S1371   1.804       .  S
C1368      C1369   1.402       .  A
C1369      C1370   1.398       .  A
C1369      H1376   1.082       .  S
C1370      S1372   1.800       .  S
S1371      H1374   1.407       .  S
S1372      H1373   1.405       .  S
C1377      C1378   1.405   1_545  A
C1378      C1379   1.407       .  A
C1378      H1387   1.084       .  S
C1379      C1380   1.414   1_565  A
C1379      S1383   1.798       .  S
C1381      C1382   1.399       .  A
C1381      H1388   1.084       .  S
C1382      S1384   1.804       .  S
S1383      H1386   1.405       .  S
S1384      H1385   1.405       .  S
C1389      C1390   1.406       .  A
C1390      C1391   1.404       .  A
C1390      H1399   1.083   1_565  S
C1391      C1392   1.419       .  A
C1391      S1395   1.804   1_565  S
C1393      C1394   1.405       .  A
C1393      H1400   1.082       .  S
C1394      S1396   1.811       .  S
S1395      H1398   1.407   1_545  S
S1396      H1397   1.407       .  S
C1401      C1402   1.417       .  A
C1401      C1406   1.427       .  A
C1402      C1403   1.398       .  A
C1402      H1411   1.079       .  S
C1403      C1404   1.404       .  A
C1403      S1407   1.807       .  S
C1404      C1405   1.398       .  A
C1405      C1406   1.399       .  A
C1405      H1412   1.085       .  S
C1406      S1408   1.804       .  S
S1407      H1410   1.403       .  S
S1408      H1409   1.399       .  S
C1413      C1414   1.402       .  A
C1413      C1418   1.413       .  A
C1414      C1415   1.403       .  A
C1414      H1423   1.084       .  S
C1415      C1416   1.417       .  A
C1415      S1419   1.800       .  S
C1416      C1417   1.404       .  A
C1417      C1418   1.401       .  A
C1417      H1424   1.083       .  S
C1418      S1420   1.807       .  S
S1419      H1422   1.404       .  S
C1425      C1426   1.543       .  S
C1425      C1431   1.532       .  S
C1425      C1429   1.543       .  S
C1425      C2113   1.540       .  S
C1426      H1433   1.085       .  S
C1426      C2139   1.367       .  D
C1427      C1428   1.550       .  S
C1427      C2138   1.366       .  D
C1427      C2104   1.496       .  S
C1428      C1432   1.537       .  S
C1428      C1430   1.545       .  S
C1428      H1434   1.110       .  S
C1429      H1435   1.083       .  S
C1429      C2142   1.366       .  D
C1430      C2141   1.367       .  D
C1430      C2089   1.486       .  S
C1431      H2148   1.087       .  S
C1431      C2144   1.363   1_545  D
C1432      C2143   1.363       .  D
C1432      C2125   1.486       .  S
H1436      C2143   1.087       .  S
C1437      C1438   1.412   1_556  A
C1437      C2077   1.480       .  S
C1438      C2053   1.480       .  S
C1439      C1440   1.398       .  A
C1439      H1444   1.085       .  S
C1440      C1441   1.413   1_554  A
C1440      C2044   1.479       .  S
C1441      C1442   1.404       .  A
C1441      C2068   1.484       .  S
C1442      H1443   1.085       .  S
C1445      C1446   1.537       .  S
C1445      C1451   1.534       .  S
C1445      C1449   1.546       .  S
C1445      C2029   1.537       .  S
C1446      H1453   1.086       .  S
C1446      C1447   1.369       .  D
C1447      C2160   1.543       .  S
C1447      C2008   1.495       .  S
C1448      C2159   1.549   1_545  S
C1448      C1452   1.534       .  S
C1448      C2162   1.542   1_545  S
C1448      H1454   1.108       .  S
C1449      H1455   1.080       .  S
C1449      C1450   1.363       .  D
C1450      C2160   1.537       .  S
C1450      C1993   1.478       .  S
C1451      H1456   1.087       .  S
C1451      C2164   1.361       .  D
C1452      C2163   1.360   1_545  D
C1452      C2020   1.479       .  S
C1457      C1463   1.535       .  S
C1457      C1461   1.527       .  S
C1458      H1465   1.083       .  S
C1458      C1459   1.372       .  D
C1459      C1981   1.495       .  S
C1460      C1464   1.543       .  S
C1460      C1462   1.553       .  S
C1460      H1466   1.110       .  S
C1461      H1467   1.084       .  S
C1461      C1462   1.366       .  D
C1462      C1969   1.501       .  S
C1463      H1468   1.085       .  S
C1463      C1464   1.362       .  D
C1469      C1470   1.414   1_554  A
C1469      C2186   1.404       .  A
C1469      C1912   1.479       .  S
C1470      C2183   1.403       .  A
C1470      C1933   1.491       .  S
C1471      C2182   1.406       .  A
C1471      C1472   1.405   1_565  A
C1471      H1476   1.085       .  S
C1472      C1473   1.413   1_556  A
C1472      C1921   1.478       .  S
C1473      C1474   1.405   1_545  A
C1473      C1897   1.495       .  S
C1474      C2181   1.407       .  A
C1474      H1475   1.085       .  S
O1477     Zr1489   2.444       .  S
O1477      C1479   1.288       .  A
O1478     Zr1515   2.415       .  S
O1478      C1479   1.283       .  A
C1479      C2080   1.468       .  S
O1480     Zr1492   2.441       .  S
O1480      C1482   1.289       .  A
O1481     Zr1516   2.409       .  S
O1481      C1482   1.283       .  A
C1482      C2032   1.474       .  S
O1483     Zr1492   2.444       .  S
O1483      C1485   1.289       .  A
O1484     Zr1515   2.437       .  S
O1484      C1485   1.288       .  A
C1485      C1936   1.479       .  S
O1486     Zr1489   2.428       .  S
O1486      C1488   1.285       .  A
O1487     Zr1516   2.439       .  S
O1487      C1488   1.289       .  A
C1488      C1984   1.469       .  S
Zr1489     O1490   2.435       .  S
Zr1489     O1491   2.435       .  S
Zr1489     O1495   2.364       .  S
Zr1489     O1496   2.371       .  S
Zr1489     O1519   2.377       .  S
Zr1489     O1521   2.365       .  S
O1490      H1533   0.990       .  S
O1491      H1532   0.990       .  S
O1491      H1536   0.990       .  S
Zr1492     O1493   2.435       .  S
Zr1492     O1494   2.434       .  S
Zr1492     O1496   2.362       .  S
Zr1492     O1495   2.372       .  S
Zr1492     O1520   2.366       .  S
Zr1492     O1522   2.372       .  S
O1493      H1534   0.990       .  S
O1493      H1537   0.990       .  S
O1494      H1527   0.990       .  S
O1495     Zr1515   2.382       .  S
O1496     Zr1516   2.389       .  S
O1496      H1523   0.967       .  S
O1497     Zr1509   2.450       .  S
O1497      C1499   1.290       .  A
O1498     Zr1516   2.417       .  S
O1498      C1499   1.284       .  A
C1499      C2017   1.479       .  S
O1500     Zr1512   2.438       .  S
O1500      C1502   1.288       .  A
O1501     Zr1515   2.406       .  S
O1501      C1502   1.283       .  A
C1502      C2065   1.467       .  S
O1503     Zr1512   2.432       .  S
O1503      C1505   1.285       .  A
O1504     Zr1516   2.445       .  S
O1504      C1505   1.290       .  A
C1505      C1972   1.473       .  S
O1506     Zr1509   2.439       .  S
O1506      C1508   1.287       .  A
O1507     Zr1515   2.434       .  S
O1507      C1508   1.287       .  A
C1508      C1924   1.470       .  S
Zr1509     O1510   2.435       .  S
Zr1509     O1511   2.435       .  S
Zr1509     O1517   2.369       .  S
Zr1509     O1518   2.375       .  S
Zr1509     O1521   2.378       .  S
Zr1509     O1519   2.370       .  S
O1510      H1530   0.990       .  S
O1510      H1535   0.990       .  S
O1511      H1531   0.990       .  S
Zr1512     O1513   2.434       .  S
Zr1512     O1514   2.437       .  S
Zr1512     O1518   2.368       .  S
Zr1512     O1517   2.378       .  S
Zr1512     O1522   2.373       .  S
Zr1512     O1520   2.371       .  S
O1513      H1529   0.990       .  S
O1514      H1528   0.990       .  S
O1514      H1538   0.990       .  S
Zr1515     O1518   2.382       .  S
Zr1515     O1520   2.386       .  S
Zr1515     O1521   2.386       .  S
Zr1516     O1517   2.386       .  S
Zr1516     O1519   2.385       .  S
Zr1516     O1522   2.384       .  S
O1517      H1525   0.966       .  S
O1520      H1524   0.967       .  S
O1521      H1526   0.964       .  S
O1539     Zr1551   2.441       .  S
O1539      C1541   1.288       .  A
O1540     Zr1577   2.443       .  S
O1540      C1541   1.289       .  A
C1541      C1888   1.478       .  S
O1542     Zr1554   2.448       .  S
O1542      C1544   1.288       .  A
O1543     Zr1578   2.434       .  S
O1543      C1544   1.288       .  A
C1544      C1909   1.474       .  S
O1545     Zr1554   2.448       .  S
O1545      C1547   1.291       .  A
O1546     Zr1577   2.419       .  S
O1546      C1547   1.285       .  A
C1547      C2128   1.480       .  S
O1548     Zr1551   2.441       .  S
O1548      C1550   1.288       .  A
O1549     Zr1578   2.412       .  S
O1549      C1550   1.284       .  A
C1550      C2056   1.472       .  S
Zr1551     O1552   2.435       .  S
Zr1551     O1553   2.436       .  S
Zr1551     O1557   2.367       .  S
Zr1551     O1558   2.373       .  S
Zr1551     O1581   2.372       .  S
Zr1551     O1583   2.371       .  S
O1552      H1595   0.990       .  S
O1553      H1594   0.990       .  S
O1553      H1598   0.990       .  S
Zr1554     O1555   2.436       .  S
Zr1554     O1556   2.433       .  S
Zr1554     O1558   2.374       .  S
Zr1554     O1557   2.368       .  S
Zr1554     O1582   2.375       .  S
Zr1554     O1584   2.373       .  S
O1555      H1596   0.990       .  S
O1555      H1599   0.990       .  S
O1556      H1589   0.990       .  S
O1557     Zr1577   2.384       .  S
O1558     Zr1578   2.390       .  S
O1558      H1585   0.966       .  S
O1559     Zr1571   2.444       .  S
O1559      C1561   1.289       .  A
O1560     Zr1578   2.444       .  S
O1560      C1561   1.290       .  A
C1561      C1900   1.483       .  S
O1562     Zr1574   2.427       .  S
O1562      C1564   1.284       .  A
O1563     Zr1577   2.452       .  S
O1563      C1564   1.291       .  A
C1564      C1876   1.475       .  S
O1565     Zr1574   2.440       .  S
O1565      C1567   1.287       .  A
O1566     Zr1578   2.420       .  S
O1566      C1567   1.284       .  A
C1567      C2041   1.465       .  S
O1568     Zr1571   2.443       .  S
O1568      C1570   1.288       .  A
O1569     Zr1577   2.426       .  S
O1569      C1570   1.286       .  A
C1570      C2116   1.470       .  S
Zr1571     O1572   2.434       .  S
Zr1571     O1573   2.434       .  S
Zr1571     O1579   2.361       .  S
Zr1571     O1580   2.370       .  S
Zr1571     O1583   2.372       .  S
Zr1571     O1581   2.374       .  S
O1572      H1592   0.990       .  S
O1572      H1597   0.990       .  S
O1573      H1593   0.990       .  S
Zr1574     O1575   2.433       .  S
Zr1574     O1576   2.435       .  S
Zr1574     O1580   2.376       .  S
Zr1574     O1579   2.371       .  S
Zr1574     O1584   2.363       .  S
Zr1574     O1582   2.374       .  S
O1575      H1591   0.990       .  S
O1576      H1590   0.990       .  S
O1576      H1600   0.990       .  S
Zr1577     O1580   2.384       .  S
Zr1577     O1582   2.391       .  S
Zr1577     O1583   2.392       .  S
Zr1578     O1579   2.384       .  S
Zr1578     O1581   2.383       .  S
Zr1578     O1584   2.383       .  S
O1579      H1587   0.964       .  S
O1582      H1586   0.967       .  S
O1583      H1588   0.964       .  S
O1601     Zr1613   2.437       .  S
O1601      C1603   1.289       .  A
O1602      C1603   1.287       .  A
C1603      C2005   1.499       .  S
O1604     Zr1616   2.449       .  S
O1604      C1606   1.290       .  A
O1605     Zr2352   2.422       .  S
O1605      C1606   1.286       .  A
O1607     Zr1616   2.441       .  S
O1607      C1609   1.288       .  A
O1608     Zr2351   2.433       .  S
O1608      C1609   1.288       .  A
C1609      C1945   1.471       .  S
O1610     Zr1613   2.438       .  S
O1610      C2324   1.288       .  A
O1611      C2324   1.284       .  A
C1612      C2537   1.461       .  S
C1612      O2322   1.287       .  A
C1612      O2323   1.282       .  A
Zr1613     O2326   2.435       .  S
Zr1613     O1615   2.436       .  S
Zr1613     O2331   2.372       .  S
Zr1613     O2332   2.373       .  S
Zr1613     O1643   2.369       .  S
Zr1613     O1645   2.370       .  S
O1614     Zr2325   2.436       .  S
O1614      H1657   0.990       .  S
O1615      H1656   0.990       .  S
O1615      H1660   0.990       .  S
Zr1616     O1618   2.434   1_455  S
Zr1616     O1644   2.377   1_455  S
Zr1616     O1646   2.376   1_455  S
O1617      H1658   0.990       .  S
O1617      H1661   0.990       .  S
O1618      H1651   0.990       .  S
O1619     Zr2325   2.372       .  S
O1620     Zr2325   2.370       .  S
O1620      H1647   0.966       .  S
O1621     Zr1633   2.438       .  S
O1621      C1623   1.287       .  A
O1622     Zr1640   2.442       .  S
O1622      C1623   1.289       .  A
C1623      C1861   1.480       .  S
O1624     Zr1636   2.427       .  S
O1624      C1626   1.285       .  A
O1625     Zr1639   2.439   1_655  S
O1625      C1626   1.289       .  A
C1626      C1996   1.475       .  S
O1627     Zr1636   2.435       .  S
O1627      C1629   1.287       .  A
O1628     Zr2352   2.428   1_655  S
O1628      C2341   1.286       .  A
C1629      C1840   1.462       .  S
C1629      O2340   1.283       .  A
O1630     Zr1633   2.439       .  S
O1630      C1632   1.288       .  A
O1631     Zr1639   2.438       .  S
O1631      C1632   1.289       .  A
C1632      C1957   1.489       .  S
Zr1633     O1634   2.436   1_455  S
Zr1633     O1641   2.364   1_455  S
Zr1633     O1642   2.367   1_455  S
O1634      H1654   0.990       .  S
O1634      H1659   0.990       .  S
O1635      H1655   0.990       .  S
Zr1636     O1637   2.434       .  S
Zr1636     O2350   2.438       .  S
Zr1636     O1642   2.370       .  S
Zr1636     O1641   2.370       .  S
Zr1636     O2358   2.367       .  S
Zr1636     O2356   2.372       .  S
O1637      H1653   0.990       .  S
O1638     Zr2348   2.434       .  S
O1638      H1652   0.990       .  S
O1638      H1662   0.990       .  S
Zr1639     O2320   2.438       .  S
Zr1639     O1642   2.384   1_455  S
Zr1639     O2356   2.389   1_455  S
Zr1640     O2317   2.425       .  S
Zr1640     O2340   2.410   1_455  S
Zr1640     O1641   2.382   1_455  S
Zr1640     O2358   2.385   1_455  S
O1641      H1649   0.966       .  S
O1644     Zr2348   2.369       .  S
O1644     Zr2351   2.390   1_655  S
O1644      H1648   0.966       .  S
O1645      H1650   0.964       .  S
O1646     Zr2348   2.364       .  S
O1646     Zr2352   2.383   1_655  S
O1663     Zr1675   2.430       .  S
O1663      C1665   1.286       .  A
O1664     Zr2413   2.429   1_445  S
O1664      C1665   1.288       .  A
C1665      C1765   1.470       .  S
O1666     Zr1678   2.440       .  S
O1666      C2380   1.287       .  A
O1667      C2380   1.283       .  A
C1668      C2513   1.475       .  S
C1668      O2378   1.290       .  A
C1668      O2379   1.285       .  A
O1669     Zr1678   2.424       .  S
O1669      C1671   1.283       .  A
O1670      C1671   1.296       .  A
C1671      C2101   1.507       .  S
O1672     Zr1675   2.445       .  S
O1673     Zr2414   2.436   1_545  S
C1674      C1777   1.477       .  S
Zr1675     O1677   2.436   1_455  S
Zr1675     O1705   2.367   1_455  S
Zr1675     O1707   2.376   1_455  S
O1676      H1719   0.990       .  S
O1677      H1718   0.990       .  S
O1677      H1722   0.990       .  S
Zr1678     O2391   2.436       .  S
Zr1678     O1680   2.434       .  S
Zr1678     O2394   2.367       .  S
Zr1678     O2393   2.377       .  S
Zr1678     O1706   2.376       .  S
Zr1678     O1708   2.366       .  S
O1679     Zr2390   2.436   1_545  S
O1679      H1720   0.990       .  S
O1679      H1723   0.990       .  S
O1680      H1713   0.990       .  S
O1681     Zr2390   2.378   1_545  S
O1682     Zr2390   2.368   1_545  S
O1682      H1709   0.965       .  S
O1683     Zr1695   2.440       .  S
O1683      C1685   1.287       .  A
O1684     Zr2414   2.403   1_655  S
O1684      C2397   1.282   1_565  A
C1685      C1816   1.458       .  S
C1685      O2396   1.281       .  A
O1686     Zr1698   2.454       .  S
O1686      C1688   1.291       .  A
O1687     Zr1701   2.416   1_655  S
O1687      C1688   1.285       .  A
C1688      C1753   1.475       .  S
O1689     Zr1698   2.446       .  S
O1689      C1691   1.289       .  A
O1690     Zr1702   2.430   1_655  S
O1690      C1691   1.287       .  A
C1691      C1789   1.478       .  S
O1692     Zr1695   2.428       .  S
O1692      C1694   1.286       .  A
O1693     Zr1701   2.460   1_655  S
O1693      C1694   1.292       .  A
C1694      C2092   1.490       .  S
Zr1695     O1696   2.436       .  S
Zr1695     O2409   2.434       .  S
Zr1695     O1703   2.364       .  S
Zr1695     O1704   2.372       .  S
Zr1695     O2419   2.369       .  S
Zr1695     O2417   2.367       .  S
O1696      H1716   0.990       .  S
O1696      H1721   0.990       .  S
O1697     Zr2407   2.435       .  S
O1697      H1717   0.990       .  S
Zr1698     O1699   2.434       .  S
Zr1698     O1704   2.371       .  S
Zr1698     O1703   2.372       .  S
O1699      H1715   0.990       .  S
O1700      H1714   0.990       .  S
O1700      H1724   0.990       .  S
Zr1701     O2376   2.431       .  S
Zr1701     O1704   2.387   1_455  S
Zr1701     O2419   2.389   1_455  S
Zr1702     O2385   2.429       .  S
Zr1702     O2396   2.397   1_455  S
Zr1702     O1703   2.386   1_455  S
Zr1702     O2417   2.380   1_455  S
O1703      H1711   0.967       .  S
O1705     Zr2407   2.366       .  S
O1705     Zr2414   2.377   1_645  S
O1706      H1710   0.967       .  S
O1707     Zr2407   2.369       .  S
O1707     Zr2413   2.393   1_545  S
O1707      H1712   0.964       .  S
C1725      C1726   1.416       .  A
C1725      C1730   1.408       .  A
C1726      C1727   1.405       .  A
C1726      C1792   1.487       .  S
C1727      C1728   1.406       .  A
C1727      H1732   1.085       .  S
C1728      C1729   1.417       .  A
C1728      C1780   1.487       .  S
C1729      C1730   1.408       .  A
C1729      C1852   1.496       .  S
C1730      H1731   1.084       .  S
C1733      C1734   1.407       .  A
C1733      C1738   1.396       .  A
C1733      C1837   1.476       .  S
C1734      C1735   1.399       .  A
C1734      C1813   1.472       .  S
C1735      C1736   1.401       .  A
C1735      H1740   1.085       .  S
C1736      C1737   1.414       .  A
C1736      C1804   1.480       .  S
C1737      C1738   1.400       .  A
C1737      C1828   1.478       .  S
C1738      H1739   1.085       .  S
C1741      C1742   1.534       .  S
C1741      C1747   1.525       .  S
C1741      C1768   1.532       .  S
C1742      H1749   1.086       .  S
C1742      C1743   1.365       .  D
C1743      C1885   1.493       .  S
C1744      C1748   1.549       .  S
C1744      C1746   1.551       .  S
C1745      H1751   1.080       .  S
C1745      C1746   1.366       .  D
C1746      C1873   1.502       .  S
C1747      H1752   1.087       .  S
C1753      C1758   1.411       .  A
C1754      C1755   1.402       .  A
C1754      H1763   1.084       .  S
C1755      S1759   1.801       .  S
C1756      C1757   1.406       .  A
C1757      C1758   1.400       .  A
C1757      H1764   1.084       .  S
C1758      S1760   1.805       .  S
S1759      H1762   1.404       .  S
S1760      H1761   1.406       .  S
C1765      C1766   1.401   1_455  A
C1766      C1767   1.399       .  A
C1766      H1775   1.083       .  S
C1767      C1768   1.421       .  A
C1767      S1771   1.812       .  S
C1769      C1770   1.397       .  A
C1769      H1776   1.077       .  S
C1770      S1772   1.804       .  S
S1771      H1774   1.407       .  S
S1772      H1773   1.407       .  S
C1777      C1778   1.404       .  A
C1777      C1782   1.411       .  A
C1778      C1779   1.404       .  A
C1778      H1787   1.083       .  S
C1779      C1780   1.413       .  A
C1779      S1783   1.800       .  S
C1780      C1781   1.405       .  A
C1781      C1782   1.399       .  A
C1781      H1788   1.084       .  S
C1782      S1784   1.804       .  S
S1783      H1786   1.406       .  S
S1784      H1785   1.407       .  S
C1789      C1794   1.412       .  A
C1790      C1791   1.400       .  A
C1790      H1799   1.084       .  S
C1791      C1792   1.413       .  A
C1791      S1795   1.800       .  S
C1793      C1794   1.400       .  A
C1793      H1800   1.084       .  S
C1794      S1796   1.804       .  S
S1795      H1798   1.406       .  S
S1796      H1797   1.407       .  S
C1801      C2514   1.403       .  A
C1801      C1806   1.409       .  A
C1801      C2380   1.466       .  S
C1802      C2513   1.403   1_545  A
C1802      C1803   1.402       .  A
C1802      H1811   1.084       .  S
C1803      C2516   1.416   1_545  A
C1803      S1807   1.800       .  S
C1804      C2515   1.413       .  A
C1804      C1805   1.404       .  A
C1805      C1806   1.396       .  A
C1805      H1812   1.084       .  S
C1806      S1808   1.805       .  S
S1807      H1810   1.406       .  S
S1808      H1809   1.406       .  S
C1813      C2526   1.403       .  A
C1813      C1818   1.410       .  A
C1814      C2525   1.402   1_545  A
C1814      C1815   1.392       .  A
C1814      H1823   1.084       .  S
C1815      C2528   1.409       .  A
C1815      S1819   1.806       .  S
C1816      C2527   1.409       .  A
C1816      C1817   1.401       .  A
C1817      C1818   1.394       .  A
C1817      H1824   1.085       .  S
C1818      S1820   1.800       .  S
S1819      H1822   1.405       .  S
S1820      H1821   1.406       .  S
C1825      C2538   1.398       .  A
C1825      C1830   1.412       .  A
C1825      C2324   1.466       .  S
C1826      C2537   1.397       .  A
C1826      C1827   1.390       .  A
C1826      H1835   1.085       .  S
C1827      C2540   1.417       .  A
C1827      S1831   1.808       .  S
C1828      C2539   1.418       .  A
C1828      C1829   1.402       .  A
C1829      C1830   1.397       .  A
C1829      H1836   1.083       .  S
C1830      S1832   1.802       .  S
S1831      H1834   1.403       .  S
S1832      H1833   1.407       .  S
C1837      C2550   1.404       .  A
C1837      C1842   1.414       .  A
C1838      C2549   1.408   1_545  A
C1838      C1839   1.405       .  A
C1838      H1847   1.083       .  S
C1839      C2552   1.413       .  A
C1839      S1843   1.804       .  S
C1840      C2551   1.410       .  A
C1840      C1841   1.399       .  A
C1841      C1842   1.393       .  A
C1841      H1848   1.085       .  S
C1842      S1844   1.808       .  S
S1843      H1846   1.407       .  S
S1844      H1845   1.403       .  S
C1849      C1854   1.417       .  A
C1850      C1851   1.397       .  A
C1850      H1859   1.084       .  S
C1851      S1855   1.806       .  S
C1852      C1853   1.407       .  A
C1853      C1854   1.406       .  A
C1853      H1860   1.083       .  S
C1854      S1856   1.805       .  S
S1855      H1858   1.404       .  S
S1856      H1857   1.406       .  S
C1861      C1866   1.414   1_455  A
C1862      C1863   1.397       .  A
C1862      H1871   1.084       .  S
C1863      S1867   1.808       .  S
C1864      C1865   1.408   1_455  A
C1865      C1866   1.407       .  A
C1865      H1872   1.083       .  S
C1866      S1868   1.804       .  S
S1867      H1870   1.403       .  S
S1868      H1869   1.406       .  S
C1873      C1874   1.407       .  A
C1873      C1878   1.422       .  A
C1874      C1875   1.408       .  A
C1874      H1883   1.081       .  S
C1875      C1876   1.415       .  A
C1875      S1879   1.805       .  S
C1876      C1877   1.396       .  A
C1877      C1878   1.395       .  A
C1877      H1884   1.082       .  S
C1878      S1880   1.805       .  S
S1879      H1882   1.403       .  S
S1880      H1881   1.403       .  S
C1885      C1886   1.406       .  A
C1885      C1890   1.417       .  A
C1886      C1887   1.408       .  A
C1886      H1895   1.084       .  S
C1887      C1888   1.415       .  A
C1887      S1891   1.806       .  S
C1888      C1889   1.400       .  A
C1889      C1890   1.401       .  A
C1889      H1896   1.083       .  S
C1890      S1892   1.809       .  S
S1891      H1894   1.404       .  S
S1892      H1893   1.406       .  S
C1897      C1898   1.408       .  A
C1897      C1902   1.416       .  A
C1898      C1899   1.407       .  A
C1898      H1907   1.083       .  S
C1899      C1900   1.415       .  A
C1899      S1903   1.805       .  S
C1900      C1901   1.403       .  A
C1901      C1902   1.400       .  A
C1901      H1908   1.084       .  S
C1902      S1904   1.806       .  S
S1903      H1906   1.406       .  S
S1904      H1905   1.403       .  S
C1909      C1910   1.401       .  A
C1909      C1914   1.414       .  A
C1910      C1911   1.398       .  A
C1910      H1919   1.080       .  S
C1911      C1912   1.410       .  A
C1911      S1915   1.801       .  S
C1912      C1913   1.403       .  A
C1913      C1914   1.401       .  A
C1913      H1920   1.084       .  S
C1914      S1916   1.806       .  S
S1915      H1918   1.406       .  S
S1916      H1917   1.403       .  S
C1921      C1922   1.403       .  A
C1921      C1926   1.411       .  A
C1922      C1923   1.399       .  A
C1922      H1931   1.084       .  S
C1923      C1924   1.412       .  A
C1923      S1927   1.805       .  S
C1924      C1925   1.402       .  A
C1925      C1926   1.399       .  A
C1925      H1932   1.081       .  S
C1926      S1928   1.803       .  S
S1927      H1930   1.402       .  S
S1928      H1929   1.405       .  S
C1933      C1934   1.407       .  A
C1933      C1938   1.418       .  A
C1934      C1935   1.404       .  A
C1934      H1943   1.083       .  S
C1935      C1936   1.413       .  A
C1935      S1939   1.804       .  S
C1936      C1937   1.402       .  A
C1937      C1938   1.400       .  A
C1937      H1944   1.084       .  S
C1938      S1940   1.807       .  S
S1939      H1942   1.406       .  S
S1940      H1941   1.402       .  S
C1945      C1946   1.402   1_455  A
C1946      C1947   1.399       .  A
C1946      H1955   1.079       .  S
C1947      C1948   1.411       .  A
C1947      S1951   1.803       .  S
C1949      C1950   1.403       .  A
C1949      H1956   1.081       .  S
C1950      S1952   1.804       .  S
S1951      H1954   1.404       .  S
S1952      H1953   1.406       .  S
C1957      C1958   1.405   1_455  A
C1958      C1959   1.409       .  A
C1958      H1967   1.082       .  S
C1959      C1960   1.422       .  A
C1959      S1963   1.806       .  S
C1961      C1962   1.398       .  A
C1961      H1968   1.080       .  S
C1962      S1964   1.810       .  S
S1963      H1966   1.406       .  S
S1964      H1965   1.406       .  S
C1969      C1970   1.409       .  A
C1969      C1974   1.425       .  A
C1970      C1971   1.406       .  A
C1970      H1979   1.080       .  S
C1971      C1972   1.413       .  A
C1971      S1975   1.806       .  S
C1972      C1973   1.397       .  A
C1973      C1974   1.397       .  A
C1973      H1980   1.085       .  S
C1974      S1976   1.808       .  S
S1975      H1978   1.403       .  S
S1976      H1977   1.401       .  S
C1981      C1982   1.408       .  A
C1981      C1986   1.415       .  A
C1982      C1983   1.406       .  A
C1982      H1991   1.079       .  S
C1983      C1984   1.413       .  A
C1983      S1987   1.809       .  S
C1984      C1985   1.399       .  A
C1985      C1986   1.394       .  A
C1985      H1992   1.085       .  S
C1986      S1988   1.798       .  S
S1987      H1990   1.402       .  S
S1988      H1989   1.401       .  S
C1993      C2706   1.402       .  A
C1993      C1998   1.413       .  A
C1994      C2705   1.403   1_545  A
C1994      C1995   1.403       .  A
C1994      H2003   1.084       .  S
C1995      C2708   1.414   1_545  A
C1995      S1999   1.797       .  S
C1996      C2707   1.412       .  A
C1996      C1997   1.403       .  A
C1997      C1998   1.396       .  A
C1997      H2004   1.084       .  S
C1998      S2000   1.805       .  S
S1999      H2002   1.404       .  S
S2000      H2001   1.406       .  S
C2005      C2006   1.410       .  A
C2005      C2722   1.419       .  A
C2006      C2007   1.402       .  A
C2006      H2015   1.082       .  S
C2007      C2008   1.414       .  A
C2007      S2011   1.807       .  S
C2008      C2721   1.407       .  A
C2009      C2720   1.410       .  A
C2009      C2010   1.403       .  A
C2009      H2016   1.084       .  S
C2010      C2717   1.417   1_565  A
C2010      S2012   1.802       .  S
S2011      H2014   1.406       .  S
S2012      H2013   1.408       .  S
C2017      C2018   1.402       .  A
C2017      C2022   1.414       .  A
C2018      C2019   1.395       .  A
C2018      H2027   1.084       .  S
C2019      C2020   1.412       .  A
C2019      S2023   1.805       .  S
C2020      C2021   1.402       .  A
C2021      C2022   1.405       .  A
C2021      H2028   1.083       .  S
C2022      S2024   1.804       .  S
S2023      H2026   1.406       .  S
S2024      H2025   1.407       .  S
C2029      C2030   1.412       .  A
C2029      C2034   1.424       .  A
C2030      C2031   1.396       .  A
C2030      H2039   1.074       .  S
C2031      C2032   1.408       .  A
C2031      S2035   1.801       .  S
C2032      C2033   1.399       .  A
C2033      C2034   1.401       .  A
C2033      H2040   1.083       .  S
C2034      S2036   1.812       .  S
S2035      H2038   1.407       .  S
S2036      H2037   1.407       .  S
C2041      C2042   1.402       .  A
C2041      C2046   1.408       .  A
C2042      C2043   1.401       .  A
C2042      H2051   1.082       .  S
C2043      C2044   1.413       .  A
C2043      S2047   1.801       .  S
C2044      C2045   1.403       .  A
C2045      C2046   1.392       .  A
C2045      H2052   1.084       .  S
C2046      S2048   1.803       .  S
S2047      H2050   1.405       .  S
S2048      H2049   1.406       .  S
C2053      C2054   1.401       .  A
C2053      C2058   1.418       .  A
C2054      C2055   1.395       .  A
C2054      H2063   1.083       .  S
C2055      C2056   1.413       .  A
C2055      S2059   1.796       .  S
C2056      C2057   1.400       .  A
C2057      C2058   1.395       .  A
C2057      H2064   1.084       .  S
C2058      S2060   1.808       .  S
S2059      H2062   1.407       .  S
S2060      H2061   1.404       .  S
C2065      C2066   1.399       .  A
C2065      C2070   1.412       .  A
C2066      C2067   1.393       .  A
C2066      H2075   1.084       .  S
C2067      C2068   1.416       .  A
C2067      S2071   1.806       .  S
C2068      C2069   1.405       .  A
C2069      C2070   1.397       .  A
C2069      H2076   1.082       .  S
C2070      S2072   1.800       .  S
S2072      H2073   1.404       .  S
C2077      C2078   1.405       .  A
C2077      C2082   1.413       .  A
C2078      C2079   1.396       .  A
C2078      H2087   1.084       .  S
C2079      C2080   1.409       .  A
C2079      S2083   1.805       .  S
C2080      C2081   1.402       .  A
C2081      C2082   1.400       .  A
C2081      H2088   1.082       .  S
C2082      S2084   1.802       .  S
S2083      H2086   1.407       .  S
S2084      H2085   1.405       .  S
C2089      C2090   1.404       .  A
C2089      C2806   1.411       .  A
C2090      C2091   1.407       .  A
C2090      H2099   1.084       .  S
C2091      C2092   1.416       .  A
C2091      S2095   1.799       .  S
C2092      C2805   1.408       .  A
C2093      C2804   1.411       .  A
C2093      C2094   1.401       .  A
C2093      H2100   1.084       .  S
C2094      C2801   1.409       .  A
C2094      S2096   1.807       .  S
S2095      H2098   1.406       .  S
S2096      H2097   1.401       .  S
C2101      C2102   1.407       .  A
C2101      C2818   1.429       .  A
C2102      C2103   1.404       .  A
C2102      H2111   1.083       .  S
C2103      C2104   1.418       .  A
C2103      S2107   1.805       .  S
C2104      C2817   1.398       .  A
C2105      C2816   1.398       .  A
C2105      C2106   1.404       .  A
C2105      H2112   1.081       .  S
C2106      C2813   1.427       .  A
C2106      S2108   1.811       .  S
S2107      H2110   1.407       .  S
S2108      H2109   1.407       .  S
C2113      C2114   1.416       .  A
C2113      C2118   1.428       .  A
C2114      C2115   1.399       .  A
C2114      H2123   1.082       .  S
C2115      C2116   1.407       .  A
C2115      S2119   1.806       .  S
C2116      C2117   1.397       .  A
C2117      C2118   1.400       .  A
C2117      H2124   1.085       .  S
C2118      S2120   1.803       .  S
S2119      H2122   1.402       .  S
S2120      H2121   1.404       .  S
C2125      C2126   1.403       .  A
C2125      C2130   1.411       .  A
C2126      C2127   1.404       .  A
C2126      H2135   1.084       .  S
C2127      C2128   1.417       .  A
C2127      S2131   1.801       .  S
C2128      C2129   1.402       .  A
C2129      C2130   1.400       .  A
C2129      H2136   1.083       .  S
C2130      S2132   1.806       .  S
S2131      H2134   1.403       .  S
S2132      H2845   1.407       .  S
H2133      S2844   1.407       .  S
C2137      C2138   1.543       .  S
C2137      C2143   1.532       .  S
C2137      C2141   1.538       .  S
C2137      C2825   1.539       .  S
C2138      H2145   1.084       .  S
C2139      C2140   1.549   1_545  S
C2139      C2816   1.496   1_545  S
C2140      C2144   1.531       .  S
C2140      C2142   1.539   1_565  S
C2140      H2146   1.110       .  S
C2141      H2147   1.084       .  S
C2142      C2801   1.482       .  S
C2144      C2837   1.477       .  S
C2149      C2150   1.414   1_556  A
C2149      C2789   1.479       .  S
C2150      C2765   1.481       .  S
C2151      C2152   1.398       .  A
C2151      H2156   1.085       .  S
C2152      C2153   1.411   1_554  A
C2152      C2756   1.472       .  S
C2153      C2154   1.401       .  A
C2153      C2780   1.482       .  S
C2154      H2155   1.085       .  S
C2157      C2158   1.536       .  S
C2157      C2163   1.532       .  S
C2157      C2161   1.547       .  S
C2157      C2741   1.538       .  S
C2158      H2165   1.086       .  S
C2158      C2159   1.371       .  D
C2159      C2720   1.502       .  S
C2160      C2164   1.531       .  S
C2160      H2166   1.109       .  S
C2161      H2167   1.081       .  S
C2161      C2162   1.365       .  D
C2162      C2705   1.481       .  S
C2163      H2168   1.087       .  S
C2164      C2732   1.474       .  S
C2169      C2175   1.535       .  S
C2169      C2173   1.528       .  S
C2170      H2177   1.083       .  S
C2170      C2171   1.370       .  D
C2171      C2693   1.493       .  S
C2172      C2176   1.540       .  S
C2172      C2174   1.556       .  S
C2172      H2178   1.109       .  S
C2173      H2179   1.083       .  S
C2173      C2174   1.368       .  D
C2174      C2681   1.506       .  S
C2175      H2180   1.085       .  S
C2175      C2176   1.357       .  D
C2181      C2182   1.416   1_554  A
C2181      C2624   1.481       .  S
C2182      C2645   1.498       .  S
C2183      C2184   1.403       .  A
C2183      H2188   1.085       .  S
C2184      C2185   1.413   1_556  A
C2184      C2633   1.474       .  S
C2185      C2186   1.404       .  A
C2185      C2609   1.493       .  S
C2186      H2187   1.085       .  S
O2189     Zr2201   2.437       .  S
O2189      C2191   1.288       .  A
O2190     Zr2227   2.414       .  S
O2190      C2191   1.283       .  A
C2191      C2792   1.465       .  S
O2192     Zr2204   2.454       .  S
O2192      C2194   1.290       .  A
O2193     Zr2228   2.407       .  S
O2193      C2194   1.282       .  A
C2194      C2744   1.476       .  S
O2195     Zr2204   2.448       .  S
O2195      C2197   1.289       .  A
O2196     Zr2227   2.436       .  S
O2196      C2197   1.288       .  A
C2197      C2648   1.484       .  S
O2198     Zr2201   2.428       .  S
O2198      C2200   1.285       .  A
O2199     Zr2228   2.441       .  S
O2199      C2200   1.289       .  A
C2200      C2696   1.472       .  S
Zr2201     O2202   2.434       .  S
Zr2201     O2203   2.437       .  S
Zr2201     O2207   2.368       .  S
Zr2201     O2208   2.371       .  S
Zr2201     O2231   2.369       .  S
Zr2201     O2233   2.363       .  S
O2202      H2245   0.990       .  S
O2203      H2244   0.990       .  S
O2203      H2248   0.990       .  S
Zr2204     O2205   2.434       .  S
Zr2204     O2206   2.436       .  S
Zr2204     O2208   2.369       .  S
Zr2204     O2207   2.373       .  S
Zr2204     O2232   2.364       .  S
Zr2204     O2234   2.368       .  S
O2205      H2246   0.990       .  S
O2205      H2249   0.990       .  S
O2206      H2239   0.990       .  S
O2207     Zr2227   2.382       .  S
O2208     Zr2228   2.388       .  S
O2208      H2235   0.967       .  S
O2209     Zr2221   2.443       .  S
O2209      C2211   1.288       .  A
O2210     Zr2228   2.415       .  S
O2210      C2211   1.284       .  A
C2211      C2729   1.473       .  S
O2212     Zr2224   2.446       .  S
O2212      C2214   1.289       .  A
O2213     Zr2227   2.416       .  S
O2213      C2214   1.284       .  A
C2214      C2777   1.471       .  S
O2215     Zr2224   2.433       .  S
O2215      C2217   1.285       .  A
O2216     Zr2228   2.437       .  S
O2216      C2217   1.288       .  A
C2217      C2684   1.470       .  S
O2218     Zr2221   2.438       .  S
O2218      C2220   1.286       .  A
O2219     Zr2227   2.421       .  S
O2219      C2220   1.285       .  A
C2220      C2636   1.464       .  S
Zr2221     O2222   2.437       .  S
Zr2221     O2223   2.436       .  S
Zr2221     O2229   2.370       .  S
Zr2221     O2230   2.377       .  S
Zr2221     O2233   2.371       .  S
Zr2221     O2231   2.372       .  S
O2222      H2242   0.990       .  S
O2222      H2247   0.990       .  S
O2223      H2243   0.990       .  S
Zr2224     O2225   2.435       .  S
Zr2224     O2226   2.436       .  S
Zr2224     O2230   2.369       .  S
Zr2224     O2229   2.379       .  S
Zr2224     O2234   2.373       .  S
Zr2224     O2232   2.372       .  S
O2225      H2241   0.990       .  S
O2226      H2240   0.990       .  S
O2226      H2250   0.990       .  S
Zr2227     O2230   2.385       .  S
Zr2227     O2232   2.381       .  S
Zr2227     O2233   2.386       .  S
Zr2228     O2229   2.387       .  S
Zr2228     O2231   2.381       .  S
Zr2228     O2234   2.382       .  S
O2229      H2237   0.965       .  S
O2232      H2236   0.966       .  S
O2233      H2238   0.962       .  S
O2251     Zr2263   2.436       .  S
O2251      C2253   1.286       .  A
O2252     Zr2289   2.445       .  S
O2252      C2253   1.290       .  A
C2253      C2600   1.476       .  S
O2254     Zr2266   2.444       .  S
O2254      C2256   1.288       .  A
O2255     Zr2290   2.429       .  S
O2255      C2256   1.287       .  A
C2256      C2621   1.472       .  S
O2257     Zr2266   2.439       .  S
O2257      C2259   1.288       .  A
O2258     Zr2289   2.415       .  S
O2258      C2259   1.284       .  A
C2259      C2840   1.473       .  S
O2260     Zr2263   2.440       .  S
O2260      C2262   1.288       .  A
O2261     Zr2290   2.405       .  S
O2261      C2262   1.283       .  A
C2262      C2768   1.469       .  S
Zr2263     O2264   2.435       .  S
Zr2263     O2265   2.437       .  S
Zr2263     O2269   2.371       .  S
Zr2263     O2270   2.372       .  S
Zr2263     O2293   2.367       .  S
Zr2263     O2295   2.365       .  S
O2264      H2307   0.990       .  S
O2265      H2306   0.990       .  S
O2265      H2310   0.990       .  S
Zr2266     O2267   2.436       .  S
Zr2266     O2268   2.435       .  S
Zr2266     O2270   2.375       .  S
Zr2266     O2269   2.368       .  S
Zr2266     O2294   2.375       .  S
Zr2266     O2296   2.371       .  S
O2267      H2308   0.990       .  S
O2267      H2311   0.990       .  S
O2268      H2301   0.990       .  S
O2269     Zr2289   2.385       .  S
O2270     Zr2290   2.387       .  S
O2270      H2297   0.966       .  S
O2271     Zr2283   2.448       .  S
O2271      C2273   1.290       .  A
O2272     Zr2290   2.438       .  S
O2272      C2273   1.288       .  A
C2273      C2612   1.482       .  S
O2274     Zr2286   2.425       .  S
O2274      C2276   1.284       .  A
O2275     Zr2289   2.463       .  S
O2275      C2276   1.293       .  A
C2276      C2588   1.478       .  S
O2277     Zr2286   2.442       .  S
O2277      C2279   1.288       .  A
O2278     Zr2290   2.409       .  S
O2278      C2279   1.282       .  A
C2279      C2753   1.461       .  S
O2280     Zr2283   2.444       .  S
O2280      C2282   1.288       .  A
O2281     Zr2289   2.422       .  S
O2281      C2282   1.285       .  A
C2282      C2828   1.466       .  S
Zr2283     O2284   2.434       .  S
Zr2283     O2285   2.435       .  S
Zr2283     O2291   2.365       .  S
Zr2283     O2292   2.375       .  S
Zr2283     O2295   2.367       .  S
Zr2283     O2293   2.372       .  S
O2284      H2304   0.990       .  S
O2284      H2309   0.990       .  S
O2285      H2305   0.990       .  S
Zr2286     O2287   2.434       .  S
Zr2286     O2288   2.435       .  S
Zr2286     O2292   2.379       .  S
Zr2286     O2291   2.368       .  S
Zr2286     O2296   2.363       .  S
Zr2286     O2294   2.377       .  S
O2287      H2303   0.990       .  S
O2288      H2302   0.990       .  S
O2288      H2312   0.990       .  S
Zr2289     O2292   2.387       .  S
Zr2289     O2294   2.390       .  S
Zr2289     O2295   2.388       .  S
Zr2290     O2291   2.383       .  S
Zr2290     O2293   2.378       .  S
Zr2290     O2296   2.382       .  S
O2291      H2299   0.965       .  S
O2294      H2298   0.966       .  S
O2295      H2300   0.964       .  S
O2313     Zr2325   2.438       .  S
O2313      C2315   1.288       .  A
O2314      C2315   1.287       .  A
C2315      C2717   1.497       .  S
O2316     Zr2328   2.452       .  S
O2316      C2318   1.290       .  A
O2317      C2318   1.286       .  A
O2319     Zr2328   2.442       .  S
O2319      C2321   1.288       .  A
O2320      C2321   1.289       .  A
C2321      C2657   1.474       .  S
O2322     Zr2325   2.435       .  S
Zr2325     O2327   2.436   1_545  S
Zr2325     O2355   2.371   1_545  S
Zr2325     O2357   2.371   1_545  S
O2326      H2369   0.990       .  S
O2327      H2368   0.990       .  S
O2327      H2372   0.990       .  S
Zr2328     O2330   2.436   1_455  S
Zr2328     O2356   2.377   1_455  S
Zr2328     O2358   2.374   1_455  S
O2329      H2370   0.990       .  S
O2329      H2373   0.990       .  S
O2330      H2363   0.990       .  S
O2332      H2359   0.966       .  S
O2333     Zr2345   2.440       .  S
O2333      C2335   1.288       .  A
O2334     Zr2352   2.437   1_565  S
O2334      C2335   1.288       .  A
C2335      C2573   1.481       .  S
O2336     Zr2348   2.422       .  S
O2336      C2338   1.285       .  A
O2337     Zr2351   2.458   1_655  S
O2337      C2338   1.293       .  A
C2338      C2708   1.485   1_545  S
O2339     Zr2348   2.435       .  S
O2339      C2341   1.287       .  A
C2341      C2552   1.475       .  S
O2342     Zr2345   2.447       .  S
O2342      C2344   1.290       .  A
O2343     Zr2351   2.422   1_565  S
O2343      C2344   1.286       .  A
C2344      C2669   1.483       .  S
Zr2345     O2346   2.435   1_455  S
Zr2345     O2353   2.365   1_455  S
Zr2345     O2354   2.367   1_455  S
O2346      H2366   0.990       .  S
O2346      H2371   0.990       .  S
O2347      H2367   0.990       .  S
Zr2348     O2349   2.432   1_545  S
Zr2348     O2354   2.371   1_545  S
Zr2348     O2353   2.364   1_545  S
O2349      H2365   0.990       .  S
O2350      H2364   0.990       .  S
O2350      H2374   0.990       .  S
Zr2351     O2354   2.385   1_445  S
Zr2352     O2353   2.378   1_445  S
O2353      H2361   0.967       .  S
O2356      H2360   0.965       .  S
O2357      H2362   0.964       .  S
O2375     Zr2387   2.438       .  S
O2375      C2377   1.287       .  A
O2376      C2377   1.287       .  A
C2377      C2477   1.475       .  S
O2378     Zr2390   2.454       .  S
O2381     Zr2390   2.427       .  S
O2381      C2383   1.284       .  A
O2382      C2383   1.295       .  A
C2383      C2813   1.504       .  S
O2384     Zr2387   2.436       .  S
C2386      C2489   1.475       .  S
Zr2387     O2389   2.438   1_455  S
Zr2387     O2417   2.372   1_455  S
Zr2387     O2419   2.369   1_455  S
O2388      H2431   0.990       .  S
O2389      H2430   0.990       .  S
O2389      H2434   0.990       .  S
Zr2390     O2392   2.435       .  S
Zr2390     O2418   2.375       .  S
Zr2390     O2420   2.367       .  S
O2391      H2432   0.990       .  S
O2391      H2435   0.990       .  S
O2392      H2425   0.990       .  S
O2394      H2421   0.965       .  S
O2395     Zr2407   2.430       .  S
O2395      C2397   1.286       .  A
C2397      C2528   1.456       .  S
O2398     Zr2410   2.457       .  S
O2398      C2400   1.291       .  A
O2399     Zr2413   2.425       .  S
O2399      C2400   1.286       .  A
C2400      C2465   1.477       .  S
O2401     Zr2410   2.452       .  S
O2401      C2403   1.290       .  A
O2402     Zr2414   2.420       .  S
O2402      C2403   1.285   1_455  A
C2403      C2501   1.475       .  S
O2404     Zr2407   2.424       .  S
O2404      C2406   1.285   1_545  A
O2405     Zr2413   2.468       .  S
O2405      C2406   1.295       .  A
C2406      C2804   1.496   1_565  S
Zr2407     O2408   2.435   1_545  S
Zr2407     O2415   2.365   1_545  S
Zr2407     O2416   2.374   1_545  S
O2408      H2428   0.990       .  S
O2408      H2433   0.990       .  S
O2409      H2429   0.990       .  S
Zr2410     O2411   2.434       .  S
Zr2410     O2416   2.371       .  S
Zr2410     O2415   2.371       .  S
O2411      H2427   0.990       .  S
O2412      H2426   0.990       .  S
O2412      H2436   0.990       .  S
Zr2413     O2416   2.389       .  S
Zr2414     O2415   2.390   1_455  S
O2415      H2423   0.966       .  S
O2418      H2422   0.967       .  S
O2419      H2424   0.964       .  S
C2437      C2438   1.412       .  A
C2437      C2442   1.408       .  A
C2438      C2439   1.401       .  A
C2438      C2504   1.489       .  S
C2439      C2440   1.408       .  A
C2439      H2444   1.085       .  S
C2440      C2441   1.419       .  A
C2440      C2492   1.485       .  S
C2441      C2442   1.407       .  A
C2441      C2564   1.498       .  S
C2442      H2443   1.084       .  S
C2445      C2446   1.410       .  A
C2445      C2450   1.399   1_565  A
C2445      C2549   1.491       .  S
C2446      C2447   1.402       .  A
C2446      C2525   1.469       .  S
C2447      C2448   1.400       .  A
C2447      H2452   1.085       .  S
C2448      C2449   1.415   1_565  A
C2448      C2516   1.491       .  S
C2449      C2450   1.405       .  A
C2449      C2540   1.477       .  S
C2450      H2451   1.085       .  S
C2453      C2454   1.538       .  S
C2453      C2459   1.529       .  S
C2453      C2480   1.542       .  S
C2454      H2461   1.086       .  S
C2454      C2455   1.369       .  D
C2455      C2597   1.497       .  S
C2456      C2460   1.551       .  S
C2456      C2458   1.549       .  S
C2457      H2463   1.079       .  S
C2457      C2458   1.366       .  D
C2458      C2585   1.498       .  S
C2459      H2464   1.087       .  S
C2465      C2470   1.414       .  A
C2466      C2467   1.401       .  A
C2466      H2475   1.084       .  S
C2467      S2471   1.801       .  S
C2468      C2469   1.404       .  A
C2469      C2470   1.401       .  A
C2469      H2476   1.084       .  S
C2470      S2472   1.806       .  S
S2471      H2474   1.403       .  S
S2472      H2473   1.402       .  S
C2477      C2478   1.401   1_455  A
C2478      C2479   1.402       .  A
C2478      H2487   1.083       .  S
C2479      C2480   1.422       .  A
C2479      S2483   1.812       .  S
C2481      C2482   1.396       .  A
C2481      H2488   1.075       .  S
C2482      S2484   1.805       .  S
S2483      H2486   1.407       .  S
S2484      H2485   1.406       .  S
C2489      C2490   1.405       .  A
C2489      C2494   1.410       .  A
C2490      C2491   1.404       .  A
C2490      H2499   1.084       .  S
C2491      C2492   1.414       .  A
C2491      S2495   1.801       .  S
C2492      C2493   1.405       .  A
C2493      C2494   1.396       .  A
C2493      H2500   1.084       .  S
C2494      S2496   1.804       .  S
S2495      H2498   1.406       .  S
S2496      H2497   1.407       .  S
C2501      C2506   1.411       .  A
C2502      C2503   1.402       .  A
C2502      H2511   1.084       .  S
C2503      C2504   1.414       .  A
C2503      S2507   1.799       .  S
C2505      C2506   1.398       .  A
C2505      H2512   1.084       .  S
C2506      S2508   1.804       .  S
S2507      H2510   1.406       .  S
S2508      H2509   1.406       .  S
C2513      C2518   1.410       .  A
C2514      C2515   1.400       .  A
C2514      H2523   1.084       .  S
C2515      S2519   1.802       .  S
C2516      C2517   1.407       .  A
C2517      C2518   1.399       .  A
C2517      H2524   1.084       .  S
C2518      S2520   1.804       .  S
S2519      H2522   1.405       .  S
S2520      H2521   1.407       .  S
C2525      C2530   1.410       .  A
C2526      C2527   1.394       .  A
C2526      H2535   1.084       .  S
C2527      S2531   1.805       .  S
C2528      C2529   1.402   1_545  A
C2529      C2530   1.396       .  A
C2529      H2536   1.085       .  S
C2530      S2532   1.801       .  S
S2531      H2534   1.405       .  S
S2532      H2533   1.406       .  S
C2537      C2542   1.411   1_545  A
C2538      C2539   1.394       .  A
C2538      H2547   1.084       .  S
C2539      S2543   1.808       .  S
C2540      C2541   1.404   1_545  A
C2541      C2542   1.398       .  A
C2541      H2548   1.083       .  S
C2542      S2544   1.803       .  S
S2543      H2546   1.403       .  S
S2544      H2545   1.406       .  S
C2549      C2554   1.417       .  A
C2550      C2551   1.398       .  A
C2550      H2559   1.083       .  S
C2551      S2555   1.804       .  S
C2552      C2553   1.401   1_545  A
C2553      C2554   1.396       .  A
C2553      H2560   1.084       .  S
C2554      S2556   1.807       .  S
S2555      H2558   1.406       .  S
S2556      H2557   1.404       .  S
C2561      C2566   1.415       .  A
C2562      C2563   1.398       .  A
C2562      H2571   1.084       .  S
C2563      S2567   1.807       .  S
C2564      C2565   1.407       .  A
C2565      C2566   1.404       .  A
C2565      H2572   1.083       .  S
C2566      S2568   1.804       .  S
S2567      H2570   1.403       .  S
S2568      H2569   1.407       .  S
C2573      C2578   1.415   1_455  A
C2574      C2575   1.396       .  A
C2574      H2583   1.084       .  S
C2575      S2579   1.809       .  S
C2576      C2577   1.406   1_455  A
C2577      C2578   1.406       .  A
C2577      H2584   1.083       .  S
C2578      S2580   1.803       .  S
S2579      H2582   1.402       .  S
S2580      H2581   1.406       .  S
C2585      C2586   1.403       .  A
C2585      C2590   1.420       .  A
C2586      C2587   1.406       .  A
C2586      H2595   1.080       .  S
C2587      C2588   1.416       .  A
C2587      S2591   1.801       .  S
C2588      C2589   1.398       .  A
C2589      C2590   1.396       .  A
C2589      H2596   1.083       .  S
C2590      S2592   1.804       .  S
S2591      H2594   1.403       .  S
S2592      H2593   1.402       .  S
C2597      C2598   1.408       .  A
C2597      C2602   1.418       .  A
C2598      C2599   1.408       .  A
C2598      H2607   1.084       .  S
C2599      C2600   1.413       .  A
C2599      S2603   1.807       .  S
C2600      C2601   1.400       .  A
C2601      C2602   1.402       .  A
C2601      H2608   1.083       .  S
C2602      S2604   1.808       .  S
S2603      H2606   1.404       .  S
S2604      H2605   1.406       .  S
C2609      C2610   1.407       .  A
C2609      C2614   1.417       .  A
C2610      C2611   1.404       .  A
C2610      H2619   1.083       .  S
C2611      C2612   1.415       .  A
C2611      S2615   1.804       .  S
C2612      C2613   1.403       .  A
C2613      C2614   1.400       .  A
C2613      H2620   1.084       .  S
C2614      S2616   1.807       .  S
S2615      H2618   1.406       .  S
S2616      H2617   1.402       .  S
C2621      C2622   1.401       .  A
C2621      C2626   1.413       .  A
C2622      C2623   1.399       .  A
C2622      H2631   1.080       .  S
C2623      C2624   1.412       .  A
C2623      S2627   1.801       .  S
C2624      C2625   1.404       .  A
C2625      C2626   1.400       .  A
C2625      H2632   1.084       .  S
C2626      S2628   1.806       .  S
S2627      H2630   1.405       .  S
S2628      H2629   1.404       .  S
C2633      C2634   1.403       .  A
C2633      C2638   1.410       .  A
C2634      C2635   1.398       .  A
C2634      H2643   1.084       .  S
C2635      C2636   1.411       .  A
C2635      S2639   1.805       .  S
C2636      C2637   1.399       .  A
C2637      C2638   1.396       .  A
C2637      H2644   1.079       .  S
C2638      S2640   1.803       .  S
S2639      H2642   1.401       .  S
S2640      H2641   1.405       .  S
C2645      C2646   1.408       .  A
C2645      C2650   1.419       .  A
C2646      C2647   1.407       .  A
C2646      H2655   1.083       .  S
C2647      C2648   1.415       .  A
C2647      S2651   1.805       .  S
C2648      C2649   1.402       .  A
C2649      C2650   1.401       .  A
C2649      H2656   1.084       .  S
C2650      S2652   1.807       .  S
S2651      H2654   1.406       .  S
S2652      H2653   1.402       .  S
C2657      C2658   1.401   1_455  A
C2658      C2659   1.400       .  A
C2658      H2667   1.079       .  S
C2659      C2660   1.414       .  A
C2659      S2663   1.802       .  S
C2661      C2662   1.403       .  A
C2661      H2668   1.083       .  S
C2662      S2664   1.805       .  S
S2663      H2666   1.404       .  S
S2664      H2665   1.406       .  S
C2669      C2670   1.405   1_455  A
C2670      C2671   1.409       .  A
C2670      H2679   1.083       .  S
C2671      C2672   1.422   1_655  A
C2671      S2675   1.807       .  S
C2673      C2674   1.394       .  A
C2673      H2680   1.078       .  S
C2674      S2676   1.813       .  S
S2675      H2678   1.406       .  S
S2676      H2677   1.407       .  S
C2681      C2682   1.411       .  A
C2681      C2686   1.427       .  A
C2682      C2683   1.405       .  A
C2682      H2691   1.081       .  S
C2683      C2684   1.411       .  A
C2683      S2687   1.807       .  S
C2684      C2685   1.396       .  A
C2685      C2686   1.397       .  A
C2685      H2692   1.085       .  S
C2686      S2688   1.806       .  S
S2687      H2690   1.403       .  S
S2688      H2689   1.402       .  S
C2693      C2694   1.405       .  A
C2693      C2698   1.413       .  A
C2694      C2695   1.405       .  A
C2694      H2703   1.078       .  S
C2695      C2696   1.411       .  A
C2695      S2699   1.805       .  S
C2696      C2697   1.400       .  A
C2697      C2698   1.396       .  A
C2697      H2704   1.085       .  S
C2698      S2700   1.796       .  S
S2699      H2702   1.406       .  S
S2700      H2701   1.403       .  S
C2705      C2710   1.413       .  A
C2706      C2707   1.400       .  A
C2706      H2715   1.084       .  S
C2707      S2711   1.797       .  S
C2708      C2709   1.406       .  A
C2709      C2710   1.399       .  A
C2709      H2716   1.084       .  S
C2710      S2712   1.806       .  S
S2711      H2714   1.407       .  S
S2712      H2713   1.404       .  S
C2717      C2718   1.409       .  A
C2718      C2719   1.403       .  A
C2718      H2727   1.082       .  S
C2719      C2720   1.416   1_545  A
C2719      S2723   1.806       .  S
C2721      C2722   1.402       .  A
C2721      H2728   1.084       .  S
C2722      S2724   1.801       .  S
S2723      H2726   1.407       .  S
S2724      H2725   1.408       .  S
C2729      C2730   1.403       .  A
C2729      C2734   1.412       .  A
C2730      C2731   1.396       .  A
C2730      H2739   1.084       .  S
C2731      C2732   1.411       .  A
C2731      S2735   1.805       .  S
C2732      C2733   1.401       .  A
C2733      C2734   1.402       .  A
C2733      H2740   1.083       .  S
C2734      S2736   1.805       .  S
S2735      H2738   1.406       .  S
S2736      H2737   1.407       .  S
C2741      C2742   1.411       .  A
C2741      C2746   1.426       .  A
C2742      C2743   1.397       .  A
C2742      H2751   1.075       .  S
C2743      C2744   1.409       .  A
C2743      S2747   1.800       .  S
C2744      C2745   1.398       .  A
C2745      C2746   1.402       .  A
C2745      H2752   1.083       .  S
C2746      S2748   1.812       .  S
S2747      H2750   1.407       .  S
S2748      H2749   1.407       .  S
C2753      C2754   1.400       .  A
C2753      C2758   1.407       .  A
C2754      C2755   1.398       .  A
C2754      H2763   1.081       .  S
C2755      C2756   1.411       .  A
C2755      S2759   1.802       .  S
C2756      C2757   1.402       .  A
C2757      C2758   1.393       .  A
C2757      H2764   1.084       .  S
C2758      S2760   1.803       .  S
S2759      H2762   1.405       .  S
S2760      H2761   1.406       .  S
C2765      C2766   1.401       .  A
C2765      C2770   1.418       .  A
C2766      C2767   1.393       .  A
C2766      H2775   1.083       .  S
C2767      C2768   1.412       .  A
C2767      S2771   1.798       .  S
C2768      C2769   1.401       .  A
C2769      C2770   1.396       .  A
C2769      H2776   1.084       .  S
C2770      S2772   1.807       .  S
S2771      H2774   1.406       .  S
S2772      H2773   1.404       .  S
C2777      C2778   1.400       .  A
C2777      C2782   1.411       .  A
C2778      C2779   1.396       .  A
C2778      H2787   1.084       .  S
C2779      C2780   1.416       .  A
C2779      S2783   1.806       .  S
C2780      C2781   1.403       .  A
C2781      C2782   1.397       .  A
C2781      H2788   1.083       .  S
C2782      S2784   1.797       .  S
S2784      H2785   1.405       .  S
C2789      C2790   1.405       .  A
C2789      C2794   1.412       .  A
C2790      C2791   1.394       .  A
C2790      H2799   1.084       .  S
C2791      C2792   1.407       .  A
C2791      S2795   1.804       .  S
C2792      C2793   1.402       .  A
C2793      C2794   1.400       .  A
C2793      H2800   1.081       .  S
C2794      S2796   1.802       .  S
S2795      H2798   1.408       .  S
S2796      H2797   1.406       .  S
C2801      C2802   1.405   1_545  A
C2802      C2803   1.407       .  A
C2802      H2811   1.084       .  S
C2803      C2804   1.417   1_565  A
C2803      S2807   1.801       .  S
C2805      C2806   1.400       .  A
C2805      H2812   1.084       .  S
C2806      S2808   1.804       .  S
S2807      H2810   1.403       .  S
S2808      H2809   1.406       .  S
C2813      C2814   1.407       .  A
C2814      C2815   1.404       .  A
C2814      H2823   1.083       .  S
C2815      C2816   1.418       .  A
C2815      S2819   1.804   1_565  S
C2817      C2818   1.406       .  A
C2817      H2824   1.082       .  S
C2818      S2820   1.811       .  S
S2819      H2822   1.407   1_545  S
S2820      H2821   1.407       .  S
C2825      C2826   1.416       .  A
C2825      C2830   1.430       .  A
C2826      C2827   1.397       .  A
C2826      H2835   1.080       .  S
C2827      C2828   1.402       .  A
C2827      S2831   1.804       .  S
C2828      C2829   1.397       .  A
C2829      C2830   1.401       .  A
C2829      H2836   1.085       .  S
C2830      S2832   1.805       .  S
S2831      H2834   1.405       .  S
S2832      H2833   1.399       .  S
C2837      C2838   1.401       .  A
C2837      C2842   1.410       .  A
C2838      C2839   1.398       .  A
C2838      H2847   1.084       .  S
C2839      C2840   1.414       .  A
C2839      S2843   1.799       .  S
C2840      C2841   1.403       .  A
C2841      C2842   1.399       .  A
C2841      H2848   1.083       .  S
C2842      S2844   1.808       .  S
S2843      H2846   1.403       .  S
