geometry optimzed in LAMMPS
_audit_creation_date              2020-12-01 
_audit_creation_method            'lammps2cif' 
_symmetry_space_group_name_H-M    'P1' 
_symmetry_Int_Tables_number       1 
_symmetry_cell_setting            triclinic 
loop_ 
_symmetry_equiv_pos_as_xyz 
  x,y,z 
_cell_length_a                    31.09982874 
_cell_length_b                    33.95182076852521 
_cell_length_c                    27.335015432907436 
_cell_angle_alpha                 91.31475849393945 
_cell_angle_beta                  89.30899708319718 
_cell_angle_gamma                 123.17590540463982 
loop_ 
_atom_site_label 
_atom_site_type_symbol 
_atom_site_fract_x 
_atom_site_fract_y 
_atom_site_fract_z 
_atom_site_charge 
N1          N  0.31374863  0.41037172  0.15030113    -0.01400
C2          C  0.35918941  0.42989645  0.17511033     0.01200
C3          C  0.34959154  0.42184550  0.22446616    -0.21700
C4          C  0.29742701  0.39635656  0.23102907    -0.21900
C5          C  0.27640025  0.38956571  0.18524985     0.01100
H6          H  0.37729936  0.43348175  0.25302178     0.14900
H7          H  0.27702977  0.38402851  0.26535013     0.14900
N8          N  0.03221662  0.11611715  0.10673868    -0.01400
C9          C  0.00687468  0.06797997  0.09929261     0.01200
C10         C  0.01160662  0.05861705  0.05072871    -0.21700
C11         C  0.04244742  0.10042838  0.02783666    -0.21900
C12         C  0.05298949  0.13454912  0.06208277     0.01100
H13         H  0.99392514  0.02441561  0.03346608     0.14900
H14         H  0.05402006  0.10533296  0.98984602     0.14900
N15         N  0.03292118  0.41287140  0.11153029    -0.01400
C16         C  0.00755752  0.43488274  0.10191621     0.01200
C17         C  0.01605468  0.44824450  0.05361876    -0.21700
C18         C  0.04931624  0.43774089  0.03369814    -0.21900
C19         C  0.05690973  0.41433266  0.06909081     0.01100
H20         H  0.99940514  0.46417729  0.03478032     0.14900
H21         H  0.06564196  0.44589315  0.99733340     0.14900
C22         C  0.48823012  0.02862345  0.13469018     0.82300
N23         N  0.01326152  0.00560964  0.13263780    -0.76000
C24         C  0.48822606  0.45764526  0.13578949     0.84800
N25         N  0.43739039  0.43313971  0.14801665    -0.75900
C26         C  0.41214793  0.45566380  0.15461762     0.84900
N27         N  0.43737993  0.00292535  0.14662494    -0.77600
N28         N  0.41538796  0.08579196  0.39637284    -0.01400
C29         C  0.40448822  0.06877136  0.44240622     0.01200
C30         C  0.44826096  0.08983354  0.97002866    -0.21700
C31         C  0.48625061  0.12385775  0.94115902    -0.21900
C32         C  0.46151254  0.12781527  0.40161000     0.01100
H33         H  0.45027795  0.08643129  0.00899625     0.14900
H34         H  0.52346497  0.15130331  0.95494232     0.14900
N35         N  0.08022725  0.18322731  0.05055767    -0.01400
C36         C  0.05503843  0.20484161  0.05846352     0.01200
C37         C  0.08160422  0.24062677  0.59194153    -0.21700
C38         C  0.12904473  0.24734253  0.59545141    -0.21900
C39         C  0.12727018  0.21126608  0.07066602     0.01100
H40         H  0.07138663  0.26503691  0.60350632     0.14900
H41         H  0.16412855  0.28073972  0.60230593     0.14900
N42         N  0.41703373  0.32872137  0.40076655    -0.01400
C43         C  0.40432055  0.33504435  0.44653435     0.01200
C44         C  0.44702609  0.35732858  0.97567696    -0.21700
C45         C  0.48637615  0.36212766  0.94728474    -0.21900
C46         C  0.46406226  0.33473632  0.40545878     0.01100
H47         H  0.44764028  0.36276689  0.01481553     0.14900
H48         H  0.52277784  0.37119837  0.96203137     0.14900
O49         O  0.06446705  0.31870522  0.48001518    -0.69700
O50         O  0.50623251  0.21146419  0.39606995    -0.69900
O51         O  0.51049473  0.29630190  0.39823848    -0.69700
O52         O  0.05805441  0.23759572  0.48098429    -0.69800
O53         O  0.98754835  0.20706408  0.02330295    -0.69700
O54         O  0.43857717  0.26075306  0.93812720    -0.69700
O55         O  0.43618577  0.17751677  0.93880693    -0.69700
O56         O  0.99442986  0.28818735  0.02290486    -0.69900
V57         V  0.53285098  0.26503604  0.43881803     1.35200
V58         V  0.46488215  0.23391118  0.97899592     1.35200
C59         C  0.04179756  0.32016072  0.01781314     0.79600
C60         C  0.46523985  0.17385508  0.40830710     0.79600
C61         C  0.46892646  0.29319542  0.40948460     0.79500
C62         C  0.03184056  0.21507445  0.01823852     0.79500
O63         O  0.34132693  0.28023314  0.00341546    -0.69700
O64         O  0.21046494  0.22388580  0.06660678    -0.69900
O65         O  0.25130111  0.19425744  0.00097695    -0.69700
O66         O  0.30058997  0.30717160  0.07092073    -0.69800
O67         O  0.26760026  0.32865580  0.51605331    -0.69700
O68         O  0.23408416  0.22098861  0.43770208    -0.69700
O69         O  0.18248948  0.24089733  0.50315269    -0.69700
O70         O  0.31612397  0.30888626  0.44872402    -0.69900
V71         V  0.27511049  0.25136748  0.03424454     1.35200
V72         V  0.24991634  0.27414967  0.47768072     1.35200
C73         C  0.35169736  0.30659298  0.46677710     0.79600
C74         C  0.17433440  0.22329982  0.04500147     0.79600
C75         C  0.23951948  0.19025788  0.45646200     0.79500
C76         C  0.29431658  0.33781693  0.05454752     0.79500
N77         N  0.09047695  0.39818791  0.06320510    -0.01400
C78         C  0.07500371  0.35241804  0.05773126     0.01200
C79         C  0.11594766  0.34949722  0.56976452    -0.21700
C80         C  0.15512347  0.39285323  0.58479287    -0.21900
C81         C  0.14027607  0.42369317  0.07833216     0.01100
H82         H  0.12250177  0.32306857  0.55663085     0.14900
H83         H  0.19447430  0.40231794  0.58632670     0.14900
N84         N  0.22017403  0.11233474  0.42696211    -0.01400
C85         C  0.25350787  0.09893023  0.43364108     0.01200
C86         C  0.30330939  0.13744151  0.93285417    -0.21700
C87         C  0.30105530  0.17563544  0.92694592    -0.21900
C88         C  0.24963545  0.16005630  0.42700333     0.01100
H89         H  0.33730031  0.13826503  0.94303000     0.14900
H90         H  0.33321997  0.21158732  0.93260983     0.14900
N91         N  0.30758498  0.40767016  0.09852084    -0.01400
C92         C  0.32668144  0.38582919  0.07305882     0.01200
C93         C  0.36678447  0.41632020  0.54304301    -0.21700
C94         C  0.36781117  0.45673849  0.54396741    -0.21900
C95         C  0.32808726  0.44870813  0.07427296     0.01100
H96         H  0.38520915  0.40697167  0.51549095     0.14900
H97         H  0.38713271  0.48416009  0.51714346     0.14900
O98         O  0.34634928  0.06890387  0.00174891    -0.69700
O99         O  0.21864941  0.49954576  0.07231639    -0.69900
O100        O  0.30784884  0.50516825  0.07095456    -0.69700
O101        O  0.25807354  0.06807858  0.00586108    -0.69800
O102        O  0.23865491  0.02250230  0.44158622    -0.69700
O103        O  0.26785043  0.44671724  0.51874624    -0.69700
O104        O  0.18584423  0.45519450  0.50719703    -0.69700
O105        O  0.31636086  0.01034740  0.44956875    -0.69900
V106        V  0.28189865  0.53485607  0.03653062     1.35200
V107        V  0.25210448  0.48424730  0.48052836     1.35200
C108        C  0.35365279  0.04894638  0.46529490     0.79600
C109        C  0.18077854  0.46386285  0.05110497     0.79600
C110        C  0.29733902  0.46580291  0.05586872     0.79500
C111        C  0.24501760  0.05936701  0.46162927     0.79500
N112        N  0.12848524  0.06769065  0.40026727    -0.01400
C113        C  0.08306151  0.04187229  0.42509726     0.01200
C114        C  0.09271924  0.04338134  0.47443874    -0.21700
C115        C  0.14490208  0.06992137  0.48097071    -0.21900
C116        C  0.16587733  0.08410774  0.43517819     0.01100
H117        H  0.06501154  0.02733944  0.50301711     0.14900
H118        H  0.16534438  0.07799277  0.51528204     0.14900
N119        N  0.41002534  0.05492653  0.35682143    -0.01400
C120        C  0.43547220  0.03229423  0.34933093     0.01200
C121        C  0.43075988  0.01824611  0.30073626    -0.21700
C122        C  0.39984888  0.02910457  0.27787205    -0.21900
C123        C  0.38922770  0.05255335  0.31216377     0.01100
H124        H  0.44843292  0.00178680  0.28347282     0.14900
H125        H  0.38826072  0.02242971  0.23987102     0.14900
C126        C  0.45407477  0.01152757  0.38467962     0.82300
N127        N  0.42896515  0.46341165  0.38251618    -0.76000
C128        C  0.45391080  0.44046140  0.38567253     0.84800
N129        N  0.50474145  0.46683358  0.39795178    -0.75900
C130        C  0.03007793  0.01466205  0.40460857     0.84900
N131        N  0.50493540  0.03672526  0.39665089    -0.77600
N132        N  0.40930319  0.35088815  0.36138681    -0.01400
C133        C  0.43451184  0.39830809  0.35179374     0.01200
C134        C  0.42601563  0.40312690  0.30347611    -0.21700
C135        C  0.39284839  0.35923783  0.28352869    -0.21900
C136        C  0.38535861  0.32825042  0.31892471     0.01100
H137        H  0.44260618  0.43573110  0.28467450     0.14900
H138        H  0.37650867  0.35098855  0.24715072     0.14900
N139        N  0.02512850  0.38281495  0.15077778    -0.01400
C140        C  0.03783515  0.40172157  0.19661854     0.01200
C141        C  0.99509324  0.38119088  0.22567522    -0.21700
C142        C  0.95573974  0.34666628  0.19713265    -0.21900
C143        C  0.97808829  0.34169235  0.15532048     0.01100
H144        H  0.99442693  0.38591551  0.26482801     0.14900
H145        H  0.91928488  0.31925112  0.21175322     0.14900
N146        N  0.36197511  0.07393151  0.30067182    -0.01400
C147        C  0.38726601  0.12082871  0.30844254     0.01200
C148        C  0.36092471  0.13014856  0.34201829    -0.21700
C149        C  0.31350340  0.08933235  0.34579612    -0.21900
C150        C  0.31504651  0.05493096  0.32095789     0.01100
H151        H  0.37119424  0.16485062  0.35346695     0.14900
H152        H  0.27849025  0.08763553  0.35272633     0.14900
N153        N  0.13457446  0.07104494  0.34848653    -0.01400
C154        C  0.11552055  0.03001395  0.32311089     0.01200
C155        C  0.07537841  0.02019139  0.29303943    -0.21700
C156        C  0.07429040  0.05955142  0.29384259    -0.21900
C157        C  0.11400738  0.09143448  0.32414882     0.01100
H158        H  0.05696471  0.99231131  0.26552936     0.14900
H159        H  0.05493259  0.06751840  0.26694901     0.14900
N160        N  0.22208992  0.36326687  0.17704513    -0.01400
C161        C  0.18890836  0.31641315  0.18362130     0.01200
C162        C  0.13904705  0.30484407  0.18296326    -0.21700
C163        C  0.14109866  0.34521542  0.17717439    -0.21900
C164        C  0.19246712  0.38129295  0.17725691     0.01100
H165        H  0.10515780  0.27152814  0.19312246     0.14900
H166        H  0.10886003  0.34878914  0.18294414     0.14900
O167        O  0.10070298  0.40979744  0.25358794    -0.69700
O168        O  0.23165587  0.98432241  0.31687928    -0.69900
O169        O  0.14165631  0.97754376  0.32113463    -0.69700
O170        O  0.19056228  0.41374432  0.25121092    -0.69800
O171        O  0.20806800  0.45784905  0.18800221    -0.69700
O172        O  0.17466160  0.03204698  0.26625691    -0.69700
O173        O  0.25969546  0.02944545  0.25351540    -0.65500
O174        O  0.12612104  0.46368784  0.19885683    -0.69900
V175        V  0.16695735  0.44714721  0.28446565     1.35200
V176        V  0.19228570  0.49520111  0.22793114     1.35200
C177        C  0.09043787  0.42582692  0.21692124     0.79600
C178        C  0.26784257  0.01992818  0.29531987     0.79600
C179        C  0.14793326  0.01446226  0.30471678     0.79500
C180        C  0.20249466  0.42160727  0.20674460     0.79500
N181        N  0.02683589  0.14160250  0.14627561    -0.01400
C182        C  0.03772531  0.13551415  0.19232823     0.01200
C183        C  0.99398076  0.11276588  0.21993718    -0.21700
C184        C  0.95598218  0.10867375  0.19101769    -0.21900
C185        C  0.98070706  0.13738135  0.15145720     0.01100
H186        H  0.99198582  0.10735639  0.25890354     0.14900
H187        H  0.91877683  0.09883752  0.20476613     0.14900
N188        N  0.35184535  0.27844044  0.31305601    -0.01400
C189        C  0.36732442  0.24819176  0.30750996     0.01200
C190        C  0.32632784  0.20416554  0.31927758    -0.21700
C191        C  0.28707127  0.20817677  0.33411201    -0.21900
C192        C  0.30200002  0.25396155  0.32797826     0.01100
H193        H  0.31986864  0.17120635  0.30610505     0.14900
H194        H  0.24771883  0.17818915  0.33550448     0.14900
O195        O  0.37788257  0.22518783  0.22976788    -0.69700
O196        O  0.93592073  0.17612533  0.14594055    -0.69900
O197        O  0.38416959  0.15044209  0.23088345    -0.69700
O198        O  0.93173489  0.25671726  0.14801649    -0.69800
O199        O  0.00364307  0.29331861  0.18800989    -0.69700
O200        O  0.45479429  0.19055299  0.27312230    -0.69700
O201        O  0.00607296  0.21251031  0.18860672    -0.69700
O202        O  0.44790528  0.26476322  0.27278060    -0.69900
V203        V  0.40938987  0.20309617  0.18864515     1.35200
V204        V  0.47740595  0.24011661  0.22883927     1.35200
C205        C  0.40055688  0.24931061  0.26762224     0.79600
C206        C  0.97696895  0.17967515  0.15813111     0.79600
C207        C  0.41044026  0.15421299  0.26813409     0.79500
C208        C  0.97327252  0.29529899  0.15932502     0.79500
O209        O  0.17421771  0.14971436  0.26859411    -0.69700
O210        O  0.20358165  0.25477482  0.19141545    -0.69900
O211        O  0.25642068  0.24026340  0.25692096    -0.69700
O212        O  0.12569557  0.16486102  0.19952834    -0.69800
O213        O  0.09619831  0.19386230  0.25160214    -0.69700
O214        O  0.22387318  0.25170446  0.32221456    -0.69700
O215        O  0.18488881  0.28126138  0.25585528    -0.69700
O216        O  0.13431562  0.16821286  0.32071864    -0.69900
V217        V  0.19006241  0.20303189  0.23036145     1.35200
V218        V  0.16063570  0.22402419  0.28642005     1.35200
C219        C  0.14473413  0.13931094  0.30567563     0.79600
C220        C  0.19759400  0.28545530  0.21154180     0.79600
C221        C  0.26161146  0.25386603  0.30089539     0.79500
C222        C  0.08862543  0.16643512  0.21519914     0.79500
N223        N  0.31374398  0.41036647  0.65030092    -0.01400
C224        C  0.35918441  0.42989228  0.67511092     0.01200
C225        C  0.34958577  0.42184022  0.72446666    -0.21700
C226        C  0.29742093  0.39634886  0.73102839    -0.21900
C227        C  0.27639504  0.38955806  0.68524878     0.01100
H228        H  0.37729271  0.43347761  0.75302268     0.14900
H229        H  0.27702313  0.38402007  0.76534904     0.14900
N230        N  0.03221161  0.11611294  0.60673900    -0.01400
C231        C  0.00687333  0.06797600  0.59929402     0.01200
C232        C  0.01160742  0.05861343  0.55073053    -0.21700
C233        C  0.04244628  0.10042503  0.52783820    -0.21900
C234        C  0.05298529  0.13454552  0.56208350     0.01100
H235        H  0.99392765  0.02441235  0.53346807     0.14900
H236        H  0.05401929  0.10532982  0.48984753     0.14900
N237        N  0.03291881  0.41286808  0.61153267    -0.01400
C238        C  0.00755606  0.43488000  0.60191792     0.01200
C239        C  0.01605598  0.44824385  0.55362100    -0.21700
C240        C  0.04931847  0.43774088  0.53370161    -0.21900
C241        C  0.05690983  0.41433136  0.56909423     0.01100
H242        H  0.99940764  0.46417687  0.53478214     0.14900
H243        H  0.06564581  0.44589408  0.49733755     0.14900
C244        C  0.48822782  0.02861998  0.63469112     0.82300
N245        N  0.01325876  0.00560572  0.63264190    -0.76000
C246        C  0.48822168  0.45764147  0.63579218     0.84800
N247        N  0.43738568  0.43313581  0.64801817    -0.75900
C248        C  0.41214324  0.45565994  0.65461889     0.84900
N249        N  0.43737722  0.00292164  0.64662464    -0.77600
N250        N  0.41538877  0.08578982  0.89637105    -0.01400
C251        C  0.40448901  0.06877081  0.94240503     0.01200
C252        C  0.44826024  0.08983296  0.47002986    -0.21700
C253        C  0.48624987  0.12385848  0.44116119    -0.21900
C254        C  0.46151330  0.12781328  0.90160703     0.01100
H255        H  0.45027729  0.08642910  0.50899688     0.14900
H256        H  0.52346410  0.15130349  0.45494503     0.14900
N257        N  0.08022079  0.18322362  0.55055788    -0.01400
C258        C  0.05503106  0.20483678  0.55846608     0.01200
C259        C  0.08161001  0.24063062  0.09194034    -0.21700
C260        C  0.12904896  0.24734375  0.09545516    -0.21900
C261        C  0.12726539  0.21126457  0.57066244     0.01100
H262        H  0.07139269  0.26504104  0.10350470     0.14900
H263        H  0.16413299  0.28073997  0.10231176     0.14900
N264        N  0.41703241  0.32871755  0.90076265    -0.01400
C265        C  0.40432125  0.33504233  0.94653067     0.01200
C266        C  0.44702420  0.35732941  0.47568236    -0.21700
C267        C  0.48637540  0.36212922  0.44729144    -0.21900
C268        C  0.46406148  0.33473344  0.90545316     0.01100
H269        H  0.44763693  0.36276649  0.51482110     0.14900
H270        H  0.52277616  0.37119894  0.46203944     0.14900
O271        O  0.06446931  0.31870544  0.98001137    -0.69700
O272        O  0.50623208  0.21146199  0.89606405    -0.69900
O273        O  0.51049535  0.29630031  0.89823229    -0.69700
O274        O  0.05805759  0.23759622  0.98097942    -0.69800
O275        O  0.98754279  0.20706133  0.52330445    -0.69700
O276        O  0.43857700  0.26075584  0.43813417    -0.69700
O277        O  0.43618451  0.17751853  0.43881026    -0.69700
O278        O  0.99442739  0.28818601  0.52290851    -0.69900
V279        V  0.53285185  0.26503444  0.93881171     1.35200
V280        V  0.46488071  0.23391165  0.47900147     1.35200
C281        C  0.04179522  0.32015941  0.51781734     0.79600
C282        C  0.46524017  0.17385297  0.90830289     0.79600
C283        C  0.46892663  0.29319312  0.90947821     0.79500
C284        C  0.03183516  0.21507184  0.51824151     0.79500
O285        O  0.34132458  0.28023500  0.50341785    -0.69700
O286        O  0.21045876  0.22388222  0.56660209    -0.69900
O287        O  0.25130101  0.19425773  0.50097492    -0.69700
O288        O  0.30058124  0.30716951  0.57092012    -0.69800
O289        O  0.26760335  0.32865629  0.01605823    -0.69700
O290        O  0.23408626  0.22099037  0.93770451    -0.69700
O291        O  0.18249350  0.24089816  0.00315692    -0.69700
O292        O  0.31612606  0.30888796  0.94872603    -0.69900
V293        V  0.27510608  0.25136661  0.53424308     1.35200
V294        V  0.24991932  0.27415100  0.97768409     1.35200
C295        C  0.35169908  0.30659217  0.96677575     0.79600
C296        C  0.17432905  0.22329749  0.54499675     0.79600
C297        C  0.23951988  0.19025848  0.95646401     0.79500
C298        C  0.29431078  0.33781576  0.55454445     0.79500
N299        N  0.09047612  0.39818588  0.56320911    -0.01400
C300        C  0.07500170  0.35241578  0.55773584     0.01200
C301        C  0.11594949  0.34949972  0.06976138    -0.21700
C302        C  0.15512383  0.39285537  0.08479202    -0.21900
C303        C  0.14027595  0.42369129  0.57833379     0.01100
H304        H  0.12250462  0.32307170  0.05662779     0.14900
H305        H  0.19447481  0.40232045  0.08632778     0.14900
N306        N  0.22017426  0.11233584  0.92696172    -0.01400
C307        C  0.25350813  0.09893098  0.93363792     0.01200
C308        C  0.30330904  0.13744084  0.43285767    -0.21700
C309        C  0.30105496  0.17563431  0.42694572    -0.21900
C310        C  0.24963580  0.16005740  0.92700467     0.01100
H311        H  0.33729995  0.13826475  0.44303484     0.14900
H312        H  0.33321962  0.21158650  0.43260875     0.14900
N313        N  0.30758134  0.40766867  0.59852070    -0.01400
C314        C  0.32667630  0.38582782  0.57305614     0.01200
C315        C  0.36678805  0.41632067  0.04304366    -0.21700
C316        C  0.36781121  0.45673718  0.04396347    -0.21900
C317        C  0.32808614  0.44870858  0.57427600     0.01100
H318        H  0.38521315  0.40697146  0.01549281     0.14900
H319        H  0.38713073  0.48415702  0.01713725     0.14900
O320        O  0.34634939  0.06890163  0.50175317    -0.69700
O321        O  0.21864689  0.49954562  0.57231544    -0.69900
O322        O  0.30784539  0.50516705  0.57095665    -0.69700
O323        O  0.25807554  0.06807884  0.50586382    -0.69800
O324        O  0.23865952  0.02250474  0.94158218    -0.69700
O325        O  0.26784825  0.44671640  0.01874729    -0.69700
O326        O  0.18584484  0.45519814  0.00719606    -0.69700
O327        O  0.31636243  0.01034593  0.94956938    -0.69900
V328        V  0.28189698  0.53485524  0.53653075     1.35200
V329        V  0.25210541  0.48424824  0.98052855     1.35200
C330        C  0.35365356  0.04894651  0.96529324     0.79600
C331        C  0.18077726  0.46386066  0.55110522     0.79600
C332        C  0.29733844  0.46580303  0.55586956     0.79500
C333        C  0.24501852  0.05936784  0.96162571     0.79500
N334        N  0.12848562  0.06768616  0.90026572    -0.01400
C335        C  0.08306154  0.04186877  0.92509541     0.01200
C336        C  0.09271902  0.04338379  0.97443770    -0.21700
C337        C  0.14490168  0.06992590  0.98097044    -0.21900
C338        C  0.16587747  0.08410820  0.93517748     0.01100
H339        H  0.06501085  0.02734513  0.00301678     0.14900
H340        H  0.16534369  0.07800192  0.01528264     0.14900
N341        N  0.41002576  0.05492312  0.85682079    -0.01400
C342        C  0.43547230  0.03229040  0.84933164     0.01200
C343        C  0.43076061  0.01824184  0.80073718    -0.21700
C344        C  0.39985028  0.02910039  0.77787179    -0.21900
C345        C  0.38922932  0.05255005  0.81216257     0.01100
H346        H  0.44843331  0.00178171  0.78347475     0.14900
H347        H  0.38826232  0.02242496  0.73987081     0.14900
C348        C  0.45407296  0.01152276  0.88468122     0.82300
N349        N  0.42896375  0.46340655  0.88251470    -0.76000
C350        C  0.45390994  0.44045654  0.88566723     0.84800
N351        N  0.50474118  0.46682860  0.89794481    -0.75900
C352        C  0.03007787  0.01465847  0.90460625     0.84900
N353        N  0.50493312  0.03671986  0.89665422    -0.77600
N354        N  0.40930003  0.35088278  0.86138271    -0.01400
C355        C  0.43450812  0.39830244  0.85178863     0.01200
C356        C  0.42600890  0.40311974  0.80347150    -0.21700
C357        C  0.39284058  0.35923010  0.78352561    -0.21900
C358        C  0.38535298  0.32824362  0.81892193     0.01100
H359        H  0.44259921  0.43572347  0.78466872     0.14900
H360        H  0.37649936  0.35097979  0.74714822     0.14900
N361        N  0.02512546  0.38281129  0.65078010    -0.01400
C362        C  0.03783301  0.40171790  0.69662081     0.01200
C363        C  0.99509142  0.38118759  0.72567815    -0.21700
C364        C  0.95573751  0.34666299  0.69713596    -0.21900
C365        C  0.97808505  0.34168885  0.65532312     0.01100
H366        H  0.99442538  0.38591249  0.76483097     0.14900
H367        H  0.91928280  0.31924775  0.71175713     0.14900
N368        N  0.36197568  0.07392697  0.80066978    -0.01400
C369        C  0.38726476  0.12082393  0.80844082     0.01200
C370        C  0.36092288  0.13014253  0.84201714    -0.21700
C371        C  0.31350265  0.08932529  0.84579569    -0.21900
C372        C  0.31504722  0.05492530  0.82095607     0.01100
H373        H  0.37119105  0.16484415  0.85346587     0.14900
H374        H  0.27848877  0.08762655  0.85272733     0.14900
N375        N  0.13457550  0.07104012  0.84848503    -0.01400
C376        C  0.11552260  0.03000885  0.82311028     0.01200
C377        C  0.07537941  0.02018431  0.79303934    -0.21700
C378        C  0.07428974  0.05954345  0.79384151    -0.21900
C379        C  0.11400682  0.09142796  0.82414672     0.01100
H380        H  0.05696583  0.99230340  0.76553001     0.14900
H381        H  0.05493065  0.06750891  0.76694784     0.14900
N382        N  0.22208492  0.36325970  0.67704323    -0.01400
C383        C  0.18890288  0.31640600  0.68361931     0.01200
C384        C  0.13904197  0.30483788  0.68296291    -0.21700
C385        C  0.14109422  0.34520954  0.67717445    -0.21900
C386        C  0.19246289  0.38128654  0.67725585     0.01100
H387        H  0.10515252  0.27152209  0.69312279     0.14900
H388        H  0.10885609  0.34878393  0.68294517     0.14900
O389        O  0.10070147  0.40979181  0.75358810    -0.69700
O390        O  0.23165780  0.98431706  0.81687801    -0.69900
O391        O  0.14165941  0.97753955  0.82113513    -0.69700
O392        O  0.19056068  0.41373840  0.75121010    -0.69800
O393        O  0.20806531  0.45784334  0.68800180    -0.69700
O394        O  0.17466362  0.03204172  0.76625627    -0.69700
O395        O  0.25969662  0.02943898  0.75351320    -0.65500
O396        O  0.12611934  0.46368346  0.69885846    -0.69900
V397        V  0.16695585  0.44714085  0.78446577     1.35200
V398        V  0.19228432  0.49519567  0.72793216     1.35200
C399        C  0.09043609  0.42582234  0.71692255     0.79600
C400        C  0.26784401  0.01992237  0.79531792     0.79600
C401        C  0.14793598  0.01445769  0.80471667     0.79500
C402        C  0.20249195  0.42160129  0.70674364     0.79500
N403        N  0.02683078  0.14159736  0.64627661    -0.01400
C404        C  0.03772057  0.13550779  0.69232829     0.01200
C405        C  0.99397687  0.11276039  0.71993831    -0.21700
C406        C  0.95597805  0.10866923  0.69102008    -0.21900
C407        C  0.98070211  0.13737637  0.65145911     0.01100
H408        H  0.99198313  0.10735119  0.75890462     0.14900
H409        H  0.91877308  0.09883340  0.70476944     0.14900
N410        N  0.35184048  0.27843325  0.81305457    -0.01400
C411        C  0.36731988  0.24818485  0.80750863     0.01200
C412        C  0.32632340  0.20415821  0.81927551    -0.21700
C413        C  0.28706607  0.20816877  0.83410865    -0.21900
C414        C  0.30199472  0.25395359  0.82797512     0.01100
H415        H  0.31986516  0.17119921  0.80610347     0.14900
H416        H  0.24771383  0.17818090  0.83550139     0.14900
O417        O  0.37787909  0.22518238  0.72976643    -0.69700
O418        O  0.93591591  0.17612045  0.64594217    -0.69900
O419        O  0.38416716  0.15043735  0.73088215    -0.69700
O420        O  0.93173142  0.25671343  0.64801813    -0.69800
O421        O  0.00363898  0.29331452  0.68801250    -0.69700
O422        O  0.45479174  0.19054850  0.77312124    -0.69700
O423        O  0.00606877  0.21250601  0.68860737    -0.69700
O424        O  0.44790123  0.26475755  0.77278002    -0.69900
V425        V  0.40938717  0.20309148  0.68864399     1.35200
V426        V  0.47740289  0.24011201  0.72883869     1.35200
C427        C  0.40055281  0.24930453  0.76762123     0.79600
C428        C  0.97696424  0.17967034  0.65813245     0.79600
C429        C  0.41043801  0.15420839  0.76813276     0.79500
C430        C  0.97326888  0.29529518  0.65932732     0.79500
O431        O  0.17421573  0.14970834  0.76859160    -0.69700
O432        O  0.20357473  0.25476652  0.69141165    -0.69900
O433        O  0.25641680  0.24025788  0.75691691    -0.69700
O434        O  0.12569022  0.16485236  0.69952707    -0.69800
O435        O  0.09619475  0.19385627  0.75159967    -0.69700
O436        O  0.22386851  0.25169642  0.82221150    -0.69700
O437        O  0.18488533  0.28125441  0.75585272    -0.69700
O438        O  0.13431110  0.16820509  0.82071487    -0.69900
V439        V  0.19005796  0.20302473  0.73035829     1.35200
V440        V  0.16063161  0.22401697  0.78641711     1.35200
C441        C  0.14473161  0.13930423  0.80567277     0.79600
C442        C  0.19758855  0.28544762  0.71153873     0.79600
C443        C  0.26160702  0.25385899  0.80089196     0.79500
C444        C  0.08862090  0.16642784  0.71519786     0.79500
N445        N  0.31375709  0.91037567  0.15029854    -0.01400
C446        C  0.35919776  0.92989861  0.17510754     0.01200
C447        C  0.34959988  0.92184787  0.22446337    -0.21700
C448        C  0.29743521  0.89636061  0.23102640    -0.21900
C449        C  0.27640873  0.88957088  0.18524707     0.01100
H450        H  0.37730841  0.93348350  0.25301895     0.14900
H451        H  0.27703779  0.88403338  0.26534746     0.14900
N452        N  0.03221135  0.61611516  0.10673749    -0.01400
C453        C  0.00686642  0.56797754  0.09929260     0.01200
C454        C  0.01159662  0.55861321  0.05072871    -0.21700
C455        C  0.04243854  0.60042362  0.02783543    -0.21900
C456        C  0.05298384  0.63454565  0.06208102     0.01100
H457        H  0.99391306  0.52441118  0.03346643     0.14900
H458        H  0.05401033  0.60532688  0.98984461     0.14900
N459        N  0.03293131  0.91287430  0.11152679    -0.01400
C460        C  0.00756715  0.93488509  0.10191236     0.01200
C461        C  0.01606133  0.94824423  0.05361401    -0.21700
C462        C  0.04932184  0.93773934  0.03369286    -0.21900
C463        C  0.05691766  0.91433326  0.06908642     0.01100
H464        H  0.99941076  0.96417588  0.03477549     0.14900
H465        H  0.06564549  0.94588968  0.99732735     0.14900
C466        C  0.48822159  0.52862132  0.13469145     0.82300
N467        N  0.01325287  0.50560786  0.13264070    -0.76000
C468        C  0.48823421  0.95764708  0.13578638     0.84800
N469        N  0.43739842  0.93314153  0.14801329    -0.75900
C470        C  0.41215612  0.95566572  0.15461469     0.84900
N471        N  0.43737139  0.50292324  0.14662645    -0.77600
N472        N  0.41537838  0.58578722  0.39636953    -0.01400
C473        C  0.40447701  0.56876444  0.44240216     0.01200
C474        C  0.44824991  0.58982466  0.97002599    -0.21700
C475        C  0.48624033  0.62384986  0.94115771    -0.21900
C476        C  0.46150361  0.62780961  0.40160898     0.01100
H477        H  0.45026630  0.58642111  0.00899314     0.14900
H478        H  0.52345424  0.65129461  0.95494221     0.14900
N479        N  0.08022455  0.68322388  0.05055520    -0.01400
C480        C  0.05503744  0.70483994  0.05845984     0.01200
C481        C  0.08160705  0.74062399  0.59194072    -0.21700
C482        C  0.12904544  0.74733548  0.59545324    -0.21900
C483        C  0.12726679  0.71126086  0.07066570     0.01100
H484        H  0.07139177  0.76503553  0.60350611     0.14900
H485        H  0.16413026  0.78073074  0.60231005     0.14900
N486        N  0.41703396  0.82872106  0.40076431    -0.01400
C487        C  0.40432081  0.83504356  0.44653232     0.01200
C488        C  0.44702452  0.85732533  0.97567960    -0.21700
C489        C  0.48637450  0.86212440  0.94728713    -0.21900
C490        C  0.46406164  0.83473433  0.40545687     0.01100
H491        H  0.44763877  0.86276311  0.01481828     0.14900
H492        H  0.52277570  0.87119417  0.96203332     0.14900
O493        O  0.06446583  0.81870329  0.48001141    -0.69700
O494        O  0.50622719  0.71145849  0.39606889    -0.69900
O495        O  0.51049091  0.79629684  0.39823504    -0.69700
O496        O  0.05805383  0.73759383  0.48098153    -0.69800
O497        O  0.98754720  0.70706266  0.02330016    -0.69700
O498        O  0.43857498  0.76075082  0.93812890    -0.69700
O499        O  0.43618130  0.67751352  0.93880866    -0.69700
O500        O  0.99443149  0.78818706  0.02290059    -0.69900
V501        V  0.53284793  0.76503183  0.43881504     1.35200
V502        V  0.46488112  0.73390908  0.97899637     1.35200
C503        C  0.04179922  0.82015943  0.01780669     0.79600
C504        C  0.46523359  0.67385048  0.40830656     0.79600
C505        C  0.46892413  0.79319243  0.40948305     0.79500
C506        C  0.03183888  0.71507204  0.01823470     0.79500
O507        O  0.34132449  0.78022892  0.00341562    -0.69700
O508        O  0.21046264  0.72388259  0.06660730    -0.69900
O509        O  0.25129735  0.69425402  0.00097626    -0.69700
O510        O  0.30058926  0.80716823  0.07092163    -0.69800
O511        O  0.26760057  0.82865242  0.51605486    -0.69700
O512        O  0.23408442  0.72098784  0.43769875    -0.69700
O513        O  0.18248951  0.74089368  0.50315180    -0.69700
O514        O  0.31612423  0.80888531  0.44872337    -0.69900
V515        V  0.27510817  0.75136395  0.03424490     1.35200
V516        V  0.24991655  0.77414746  0.47767990     1.35200
C517        C  0.35169764  0.80659116  0.46677499     0.79600
C518        C  0.17433191  0.72329609  0.04500168     0.79600
C519        C  0.23951921  0.69025621  0.45645705     0.79500
C520        C  0.29431691  0.83781436  0.05454881     0.79500
N521        N  0.09048318  0.89818654  0.06319961    -0.01400
C522        C  0.07500831  0.85241627  0.05772368     0.01200
C523        C  0.11595105  0.84949315  0.56975719    -0.21700
C524        C  0.15512946  0.89284849  0.58478345    -0.21900
C525        C  0.14028323  0.92369013  0.07832428     0.01100
H526        H  0.12250188  0.82306270  0.55662232     0.14900
H527        H  0.19447981  0.90231131  0.58631487     0.14900
N528        N  0.22016987  0.61233273  0.42695494    -0.01400
C529        C  0.25350140  0.59892574  0.43363453     0.01200
C530        C  0.30330242  0.63743605  0.93285330    -0.21700
C531        C  0.30105023  0.67563094  0.92694478    -0.21900
C532        C  0.24963331  0.66005419  0.42699686     0.01100
H533        H  0.33729249  0.63825831  0.94302983     0.14900
H534        H  0.33321580  0.71158237  0.93260938     0.14900
N535        N  0.30759256  0.90767187  0.09851842    -0.01400
C536        C  0.32668556  0.88582730  0.07305774     0.01200
C537        C  0.36678897  0.91631411  0.54303901    -0.21700
C538        C  0.36781748  0.95673333  0.54396049    -0.21900
C539        C  0.32809542  0.94870846  0.07426793     0.01100
H540        H  0.38521116  0.90696274  0.51548709     0.14900
H541        H  0.38713850  0.98415306  0.51713444     0.14900
O542        O  0.34634037  0.56890057  0.00174617    -0.69700
O543        O  0.21865511  0.99954445  0.07231319    -0.69900
O544        O  0.30785548  0.00516805  0.07095325    -0.69700
O545        O  0.25806499  0.56807590  0.00586068    -0.69800
O546        O  0.23864515  0.52249697  0.44158395    -0.69700
O547        O  0.26786143  0.94671958  0.51874135    -0.69700
O548        O  0.18585389  0.95519565  0.50719460    -0.69700
O549        O  0.31634968  0.51034064  0.44956880    -0.69900
V550        V  0.28190605  0.03485723  0.03653025     1.35200
V551        V  0.25211492  0.98425121  0.48052724     1.35200
C552        C  0.35364191  0.54894127  0.46529136     0.79600
C553        C  0.18078555  0.96386212  0.05109961     0.79600
C554        C  0.29734775  0.96580416  0.05586448     0.79500
C555        C  0.24500835  0.55936273  0.46162479     0.79500
N556        N  0.12848190  0.56769142  0.40025868    -0.01400
C557        C  0.08305765  0.54187296  0.42508769     0.01200
C558        C  0.09271384  0.54338106  0.47442934    -0.21700
C559        C  0.14489656  0.56992045  0.48096245    -0.21900
C560        C  0.16587304  0.58410761  0.43517033     0.01100
H561        H  0.06500463  0.52733894  0.50300694     0.14900
H562        H  0.16533801  0.57799090  0.51527421     0.14900
N563        N  0.41001701  0.55492329  0.35681690    -0.01400
C564        C  0.43546383  0.53229096  0.34932600     0.01200
C565        C  0.43075258  0.51824391  0.30073104    -0.21700
C566        C  0.39984235  0.52910342  0.27786677    -0.21900
C567        C  0.38922025  0.55255128  0.31215899     0.01100
H568        H  0.44842576  0.50178476  0.28346771     0.14900
H569        H  0.38825509  0.52242954  0.23986556     0.14900
C570        C  0.45406789  0.51152514  0.38467419     0.82300
N571        N  0.42897191  0.96341408  0.38252030    -0.76000
C572        C  0.45391746  0.94046375  0.38567616     0.84800
N573        N  0.50474764  0.96683549  0.39795726    -0.75900
C574        C  0.03007482  0.51466249  0.40459801     0.84900
N575        N  0.50492899  0.53672322  0.39664355    -0.77600
N576        N  0.40930659  0.85089143  0.36138603    -0.01400
C577        C  0.43452018  0.89831221  0.35179507     0.01200
C578        C  0.42602802  0.90313430  0.30347711    -0.21700
C579        C  0.39285884  0.85924681  0.28352733    -0.21900
C580        C  0.38536325  0.82825681  0.31892239     0.01100
H581        H  0.44262134  0.93573937  0.28467679     0.14900
H582        H  0.37652146  0.85100018  0.24714854     0.14900
N583        N  0.02513929  0.88281933  0.15077562    -0.01400
C584        C  0.03784647  0.90172808  0.19661566     0.01200
C585        C  0.99510466  0.88120023  0.22567239    -0.21700
C586        C  0.95575053  0.84667467  0.19713144    -0.21900
C587        C  0.97809809  0.84169802  0.15532004     0.01100
H588        H  0.99443876  0.88592714  0.26482500     0.14900
H589        H  0.91929576  0.81926061  0.21175333     0.14900
N590        N  0.36196894  0.57393071  0.30066690    -0.01400
C591        C  0.38726040  0.62082785  0.30843903     0.01200
C592        C  0.36091769  0.63014750  0.34201302    -0.21700
C593        C  0.31349525  0.58933201  0.34578751    -0.21900
C594        C  0.31503941  0.55493048  0.32095087     0.01100
H595        H  0.37118815  0.66484962  0.35346268     0.14900
H596        H  0.27848220  0.58763573  0.35271599     0.14900
N597        N  0.13457238  0.57104846  0.34847815    -0.01400
C598        C  0.11551805  0.53001885  0.32309979     0.01200
C599        C  0.07537804  0.52019948  0.29302709    -0.21700
C600        C  0.07429105  0.55956001  0.29383350    -0.21900
C601        C  0.11400735  0.59144062  0.32414192     0.01100
H602        H  0.05696468  0.49232107  0.26551523     0.14900
H603        H  0.05493492  0.56752941  0.26694052     0.14900
N604        N  0.22209867  0.86327575  0.17704145    -0.01400
C605        C  0.18891374  0.81642233  0.18361548     0.01200
C606        C  0.13905391  0.80485702  0.18295447    -0.21700
C607        C  0.14111017  0.84523059  0.17716571    -0.21900
C608        C  0.19247982  0.88130581  0.17725046     0.01100
H609        H  0.10516221  0.77154212  0.19311218     0.14900
H610        H  0.10887306  0.84880686  0.18293357     0.14900
O611        O  0.10071396  0.90979917  0.25358249    -0.69700
O612        O  0.23164988  0.48432094  0.31687532    -0.69900
O613        O  0.14165410  0.47754885  0.32113231    -0.69700
O614        O  0.19057742  0.91375302  0.25120743    -0.69800
O615        O  0.20807839  0.95786038  0.18800196    -0.69700
O616        O  0.17465409  0.53204373  0.26624565    -0.69700
O617        O  0.25968715  0.52944036  0.25350863    -0.65500
O618        O  0.12613092  0.96369744  0.19886069    -0.69900
V619        V  0.16696580  0.94714897  0.28446520     1.35200
V620        V  0.19229480  0.99520848  0.22793637     1.35200
C621        C  0.09044876  0.92583259  0.21691933     0.79600
C622        C  0.26783572  0.51992557  0.29531378     0.79600
C623        C  0.14792908  0.51446450  0.30470829     0.79500
C624        C  0.20250819  0.92161861  0.20674113     0.79500
N625        N  0.02683331  0.64160257  0.14627387    -0.01400
C626        C  0.03772484  0.63551582  0.19232622     0.01200
C627        C  0.99398110  0.61276750  0.21993659    -0.21700
C628        C  0.95598157  0.60867517  0.19101838    -0.21900
C629        C  0.98070499  0.63738204  0.15145717     0.01100
H630        H  0.99198717  0.60735833  0.25890300     0.14900
H631        H  0.91877681  0.59883964  0.20476813     0.14900
N632        N  0.35184757  0.77844743  0.31305032    -0.01400
C633        C  0.36732533  0.74819761  0.30750680     0.01200
C634        C  0.32632801  0.70417245  0.31927601    -0.21700
C635        C  0.28707271  0.70818572  0.33411024    -0.21900
C636        C  0.30200246  0.75397034  0.32797337     0.01100
H637        H  0.31986723  0.67121241  0.30610447     0.14900
H638        H  0.24771979  0.67819888  0.33550325     0.14900
O639        O  0.37788441  0.72519258  0.22976541    -0.69700
O640        O  0.93592042  0.67612763  0.14594081    -0.69900
O641        O  0.38416768  0.65044460  0.23088085    -0.69700
O642        O  0.93174091  0.75672283  0.14801589    -0.69800
O643        O  0.00364703  0.79332130  0.18801278    -0.69700
O644        O  0.45479121  0.69055258  0.27312181    -0.69700
O645        O  0.00607241  0.71251096  0.18860750    -0.69700
O646        O  0.44790578  0.76476508  0.27278038    -0.69900
V647        V  0.40939148  0.70309985  0.18864361     1.35200
V648        V  0.47740626  0.74011761  0.22883992     1.35200
C649        C  0.40055806  0.74931450  0.26762037     0.79600
C650        C  0.97696801  0.67967635  0.15813154     0.79600
C651        C  0.41043685  0.65421340  0.26813189     0.79500
C652        C  0.97327912  0.79530349  0.15932591     0.79500
O653        O  0.17421896  0.64972067  0.26858824    -0.69700
O654        O  0.20358354  0.75478162  0.19141017    -0.69900
O655        O  0.25642234  0.74026968  0.25691546    -0.69700
O656        O  0.12569675  0.66486742  0.19952284    -0.69800
O657        O  0.09619837  0.69386621  0.25159847    -0.69700
O658        O  0.22387561  0.75171329  0.32220801    -0.69700
O659        O  0.18488715  0.78126659  0.25584893    -0.69700
O660        O  0.13431939  0.66822033  0.32071464    -0.69900
V661        V  0.19006381  0.70303840  0.23035594     1.35200
V662        V  0.16063698  0.72403056  0.28641476     1.35200
C663        C  0.14473631  0.63931765  0.30567043     0.79600
C664        C  0.19759470  0.78546151  0.21153611     0.79600
C665        C  0.26161367  0.75387394  0.30088937     0.79500
C666        C  0.08862569  0.66643923  0.21519534     0.79500
N667        N  0.31375430  0.91036920  0.65029813    -0.01400
C668        C  0.35919505  0.92989441  0.67510751     0.01200
C669        C  0.34959701  0.92184322  0.72446335    -0.21700
C670        C  0.29743216  0.89635286  0.73102579    -0.21900
C671        C  0.27640579  0.88956205  0.68524629     0.01100
H672        H  0.37730508  0.93348088  0.75301908     0.14900
H673        H  0.27703466  0.88402522  0.76534672     0.14900
N674        N  0.03220751  0.61611086  0.60673717    -0.01400
C675        C  0.00686487  0.56797349  0.59929267     0.01200
C676        C  0.01159692  0.55860947  0.55072908    -0.21700
C677        C  0.04243806  0.60042024  0.52783601    -0.21900
C678        C  0.05298122  0.63454198  0.56208113     0.01100
H679        H  0.99391443  0.52440812  0.53346676     0.14900
H680        H  0.05401028  0.60532379  0.48984519     0.14900
N681        N  0.03292904  0.91287110  0.61153281    -0.01400
C682        C  0.00756403  0.93488090  0.60191768     0.01200
C683        C  0.01606013  0.94824146  0.55361970    -0.21700
C684        C  0.04932270  0.93773866  0.53369981    -0.21900
C685        C  0.05691818  0.91433268  0.56909357     0.01100
H686        H  0.99940926  0.96417227  0.53478056     0.14900
H687        H  0.06564738  0.94588964  0.49733461     0.14900
C688        C  0.48821715  0.52861738  0.63469308     0.82300
N689        N  0.01325028  0.50560412  0.63264297    -0.76000
C690        C  0.48823273  0.95764418  0.63579011     0.84800
N691        N  0.43739665  0.93313835  0.64801561    -0.75900
C692        C  0.41215363  0.95566204  0.65461513     0.84900
N693        N  0.43736679  0.50291940  0.64662761    -0.77600
N694        N  0.41537885  0.58578461  0.89636865    -0.01400
C695        C  0.40447812  0.56876386  0.94240205     0.01200
C696        C  0.44824834  0.58982373  0.47002664    -0.21700
C697        C  0.48623913  0.62385053  0.44116016    -0.21900
C698        C  0.46150402  0.62780735  0.90160615     0.01100
H699        H  0.45026404  0.58641821  0.50899358     0.14900
H700        H  0.52345275  0.65129499  0.45494603     0.14900
N701        N  0.08022073  0.68322018  0.55055497    -0.01400
C702        C  0.05503371  0.70483581  0.55846334     0.01200
C703        C  0.08160856  0.74062814  0.09193779    -0.21700
C704        C  0.12904578  0.74733811  0.09545601    -0.21900
C705        C  0.12726495  0.71125821  0.57066137     0.01100
H706        H  0.07139321  0.76504016  0.10350085     0.14900
H707        H  0.16413044  0.78073312  0.10231410     0.14900
N708        N  0.41703150  0.82871699  0.90076443    -0.01400
C709        C  0.40431993  0.83504024  0.94653286     0.01200
C710        C  0.44702462  0.85732848  0.47568031    -0.21700
C711        C  0.48637531  0.86212734  0.44728931    -0.21900
C712        C  0.46405981  0.83473137  0.90545490     0.01100
H713        H  0.44763776  0.86276580  0.51481908     0.14900
H714        H  0.52277571  0.87119606  0.46203728     0.14900
O715        O  0.06446863  0.81870244  0.98000389    -0.69700
O716        O  0.50622548  0.71145629  0.89606260    -0.69900
O717        O  0.51049108  0.79629593  0.89823061    -0.69700
O718        O  0.05805467  0.73759210  0.98097431    -0.69800
O719        O  0.98754389  0.70705958  0.52330425    -0.69700
O720        O  0.43857547  0.76075440  0.43813448    -0.69700
O721        O  0.43617992  0.67751568  0.43881036    -0.69700
O722        O  0.99442913  0.78818455  0.52290925    -0.69900
V723        V  0.53284863  0.76503020  0.93880892     1.35200
V724        V  0.46487924  0.73390965  0.47900082     1.35200
C725        C  0.04179645  0.82015811  0.51781523     0.79600
C726        C  0.46523335  0.67384812  0.90830291     0.79600
C727        C  0.46892355  0.79319012  0.90947875     0.79500
C728        C  0.03183632  0.71507056  0.51823976     0.79500
O729        O  0.34132480  0.78023149  0.50341422    -0.69700
O730        O  0.21045931  0.72387746  0.56659987    -0.69900
O731        O  0.25130069  0.69425454  0.50096987    -0.69700
O732        O  0.30058289  0.80716497  0.57091891    -0.69800
O733        O  0.26760190  0.82865367  0.01606080    -0.69700
O734        O  0.23408488  0.72098932  0.93770432    -0.69700
O735        O  0.18249149  0.74089532  0.00315753    -0.69700
O736        O  0.31612491  0.80888654  0.94872820    -0.69900
V737        V  0.27510655  0.75136260  0.53424017     1.35200
V738        V  0.24991775  0.77414899  0.97768539     1.35200
C739        C  0.35169742  0.80658951  0.96677718     0.79600
C740        C  0.17432911  0.72329252  0.54499520     0.79600
C741        C  0.23951680  0.69025623  0.95646320     0.79500
C742        C  0.29431283  0.83781197  0.55454470     0.79500
N743        N  0.09048252  0.89818491  0.56320691    -0.01400
C744        C  0.07500578  0.85241413  0.55773244     0.01200
C745        C  0.11595375  0.84949603  0.06974979    -0.21700
C746        C  0.15513038  0.89285111  0.08477866    -0.21900
C747        C  0.14028332  0.92368822  0.57832931     0.01100
H748        H  0.12250577  0.82306608  0.05661559     0.14900
H749        H  0.19448085  0.90231475  0.08631249     0.14900
N750        N  0.22016816  0.61233299  0.92695975    -0.01400
C751        C  0.25350052  0.59892650  0.93363643     0.01200
C752        C  0.30330346  0.63743501  0.43285221    -0.21700
C753        C  0.30105224  0.67563003  0.42693967    -0.21900
C754        C  0.24963121  0.66005452  0.92700314     0.01100
H755        H  0.33729304  0.63825708  0.44303040     0.14900
H756        H  0.33321788  0.71158132  0.43260364     0.14900
N757        N  0.30759014  0.90766880  0.59851812    -0.01400
C758        C  0.32668181  0.88582455  0.57305473     0.01200
C759        C  0.36679130  0.91631575  0.04303997    -0.21700
C760        C  0.36781675  0.95673345  0.04395691    -0.21900
C761        C  0.32809516  0.94870729  0.57427076     0.01100
H762        H  0.38521370  0.90696349  0.01548920     0.14900
H763        H  0.38713577  0.98415123  0.01712850     0.14900
O764        O  0.34633961  0.56889917  0.50174784    -0.69700
O765        O  0.21865369  0.99954366  0.57231537    -0.69900
O766        O  0.30785256  0.00516514  0.57095708    -0.69700
O767        O  0.25806557  0.56807604  0.50585938    -0.69800
O768        O  0.23864904  0.52249951  0.94158366    -0.69700
O769        O  0.26785844  0.94671941  0.01874186    -0.69700
O770        O  0.18585396  0.95519991  0.00719041    -0.69700
O771        O  0.31635112  0.51033948  0.94957048    -0.69900
V772        V  0.28190534  0.03485562  0.53653321     1.35200
V773        V  0.25211566  0.98425233  0.98052524     1.35200
C774        C  0.35364307  0.54894118  0.96529139     0.79600
C775        C  0.18078508  0.96385946  0.55110311     0.79600
C776        C  0.29734792  0.96580293  0.55586599     0.79500
C777        C  0.24500924  0.55936367  0.96162564     0.79500
N778        N  0.12848022  0.56768532  0.90026150    -0.01400
C779        C  0.08305539  0.54186727  0.92508998     0.01200
C780        C  0.09271124  0.54338075  0.97443234    -0.21700
C781        C  0.14489379  0.56992239  0.98096664    -0.21900
C782        C  0.16587106  0.58410641  0.93517430     0.01100
H783        H  0.06500156  0.52734130  0.00301038     0.14900
H784        H  0.16533453  0.57799688  0.01527927     0.14900
N785        N  0.41001635  0.55491902  0.85681720    -0.01400
C786        C  0.43546319  0.53228665  0.84932683     0.01200
C787        C  0.43075194  0.51823919  0.80073205    -0.21700
C788        C  0.39984157  0.52909817  0.77786745    -0.21900
C789        C  0.38921996  0.55254677  0.81215908     0.01100
H790        H  0.44842490  0.50177946  0.78346914     0.14900
H791        H  0.38825370  0.52242338  0.73986640     0.14900
C792        C  0.45406620  0.51151998  0.88467498     0.82300
N793        N  0.42897000  0.96340933  0.88252024    -0.76000
C794        C  0.45391545  0.94045881  0.88567400     0.84800
N795        N  0.50474596  0.96683013  0.89795487    -0.75900
C796        C  0.03007227  0.51465688  0.90459961     0.84900
N797        N  0.50492714  0.53671772  0.89664479    -0.77600
N798        N  0.40930165  0.85088565  0.86138626    -0.01400
C799        C  0.43451534  0.89830603  0.85179363     0.01200
C800        C  0.42602012  0.90312611  0.80347594    -0.21700
C801        C  0.39284965  0.85923787  0.78352814    -0.21900
C802        C  0.38535568  0.82824915  0.81892416     0.01100
H803        H  0.44261370  0.93573052  0.78467401     0.14900
H804        H  0.37651102  0.85098980  0.74714968     0.14900
N805        N  0.02513633  0.88281491  0.65078074    -0.01400
C806        C  0.03784534  0.90172284  0.69662091     0.01200
C807        C  0.99510446  0.88119489  0.72567905    -0.21700
C808        C  0.95574925  0.84667011  0.69713841    -0.21900
C809        C  0.97809498  0.84169380  0.65532544     0.01100
H810        H  0.99443937  0.88592149  0.76483192     0.14900
H811        H  0.91929470  0.81925607  0.71176065     0.14900
N812        N  0.36196661  0.57392421  0.80066689    -0.01400
C813        C  0.38725576  0.62082097  0.80843999     0.01200
C814        C  0.36091297  0.63013846  0.84201615    -0.21700
C815        C  0.31349237  0.58932131  0.84579258    -0.21900
C816        C  0.31503754  0.55492199  0.82095220     0.01100
H817        H  0.37118181  0.66483976  0.85346704     0.14900
H818        H  0.27847841  0.58762230  0.85272449     0.14900
N819        N  0.13457147  0.57104240  0.84848109    -0.01400
C820        C  0.11551753  0.53001249  0.82310332     0.01200
C821        C  0.07537578  0.52019120  0.79303218    -0.21700
C822        C  0.07428730  0.55955095  0.79383824    -0.21900
C823        C  0.11400470  0.59143300  0.82414477     0.01100
H824        H  0.05696193  0.49231198  0.76552120     0.14900
H825        H  0.05492948  0.56751890  0.76694581     0.14900
N826        N  0.22209578  0.86326697  0.67704073    -0.01400
C827        C  0.18891064  0.81641345  0.68361467     0.01200
C828        C  0.13905096  0.80484864  0.68295566    -0.21700
C829        C  0.14110747  0.84522248  0.67716833    -0.21900
C830        C  0.19247718  0.88129734  0.67725137     0.01100
H831        H  0.10515945  0.77153396  0.69311404     0.14900
H832        H  0.10887080  0.84879908  0.68293783     0.14900
O833        O  0.10071479  0.90979372  0.75358476    -0.69700
O834        O  0.23164810  0.48431356  0.81687550    -0.69900
O835        O  0.14165306  0.47754223  0.82113352    -0.69700
O836        O  0.19057797  0.91374687  0.75120774    -0.69800
O837        O  0.20807709  0.95785266  0.68800127    -0.69700
O838        O  0.17465372  0.53203839  0.76624825    -0.69700
O839        O  0.25968603  0.52943378  0.75350937    -0.65500
O840        O  0.12613045  0.96369099  0.69886201    -0.69900
V841        V  0.16696741  0.94714364  0.78446553     1.35200
V842        V  0.19229526  0.99520206  0.72793572     1.35200
C843        C  0.09044852  0.92582689  0.71692219     0.79600
C844        C  0.26783415  0.51991822  0.79531437     0.79600
C845        C  0.14792871  0.51445858  0.80471082     0.79500
C846        C  0.20250730  0.92161125  0.70674108     0.79500
N847        N  0.02682963  0.64159735  0.64627453    -0.01400
C848        C  0.03772121  0.63550871  0.69232596     0.01200
C849        C  0.99397802  0.61276050  0.71993691    -0.21700
C850        C  0.95597834  0.60866955  0.69102015    -0.21900
C851        C  0.98070138  0.63737680  0.65145900     0.01100
H852        H  0.99198487  0.60735065  0.75890318     0.14900
H853        H  0.91877407  0.59883408  0.70477069     0.14900
N854        N  0.35184153  0.77843931  0.81305390    -0.01400
C855        C  0.36732045  0.74819038  0.80751042     0.01200
C856        C  0.32632365  0.70416450  0.81927863    -0.21700
C857        C  0.28706703  0.70817632  0.83411135    -0.21900
C858        C  0.30199589  0.75396081  0.82797512     0.01100
H859        H  0.31986434  0.67120500  0.80610707     0.14900
H860        H  0.24771432  0.67818867  0.83550412     0.14900
O861        O  0.37788063  0.72518881  0.72976785    -0.69700
O862        O  0.93591723  0.67612289  0.64594209    -0.69900
O863        O  0.38416210  0.65043983  0.73088330    -0.69700
O864        O  0.93173732  0.75671839  0.64801892    -0.69800
O865        O  0.00364300  0.79331575  0.68801645    -0.69700
O866        O  0.45478624  0.69054589  0.77312370    -0.69700
O867        O  0.00606818  0.71250519  0.68861030    -0.69700
O868        O  0.44790087  0.76475806  0.77278490    -0.69900
V869        V  0.40938731  0.70309559  0.68864638     1.35200
V870        V  0.47740175  0.74011192  0.72884341     1.35200
C871        C  0.40055361  0.74930867  0.76762400     0.79600
C872        C  0.97696435  0.67967109  0.65813365     0.79600
C873        C  0.41043144  0.65420751  0.76813379     0.79500
C874        C  0.97327549  0.79529881  0.65932985     0.79500
O875        O  0.17421603  0.64971268  0.76859046    -0.69700
O876        O  0.20357782  0.75477092  0.69140886    -0.69900
O877        O  0.25641790  0.74026188  0.75691596    -0.69700
O878        O  0.12569203  0.66485656  0.69952413    -0.69800
O879        O  0.09619527  0.69385978  0.75159604    -0.69700
O880        O  0.22386919  0.75170290  0.82220868    -0.69700
O881        O  0.18488547  0.78125861  0.75584812    -0.69700
O882        O  0.13431225  0.66821102  0.82071302    -0.69900
V883        V  0.19005943  0.70302900  0.73035632     1.35200
V884        V  0.16063227  0.72402196  0.78641380     1.35200
C885        C  0.14473185  0.63930941  0.80567146     0.79600
C886        C  0.19759143  0.78545232  0.71153491     0.79600
C887        C  0.26160791  0.75386470  0.80089039     0.79500
C888        C  0.08862193  0.66643096  0.71519473     0.79500
N889        N  0.81374833  0.41037254  0.15030107    -0.01400
C890        C  0.85918895  0.42989676  0.17511047     0.01200
C891        C  0.84959060  0.42184518  0.22446615    -0.21700
C892        C  0.79742606  0.39635625  0.23102873    -0.21900
C893        C  0.77639969  0.38956611  0.18524943     0.01100
H894        H  0.87729834  0.43348109  0.25302211     0.14900
H895        H  0.77702850  0.38402776  0.26534965     0.14900
N896        N  0.53221603  0.11611779  0.10673854    -0.01400
C897        C  0.50687509  0.06798063  0.09929263     0.01200
C898        C  0.51160744  0.05861787  0.05072879    -0.21700
C899        C  0.54244775  0.10042928  0.02783673    -0.21900
C900        C  0.55298897  0.13454988  0.06208271     0.01100
H901        H  0.49392659  0.02441643  0.03346623     0.14900
H902        H  0.55402076  0.10533397  0.98984614     0.14900
N903        N  0.53292104  0.41287138  0.11152943    -0.01400
C904        C  0.50755788  0.43488315  0.10191549     0.01200
C905        C  0.51605465  0.44824473  0.05361788    -0.21700
C906        C  0.54931547  0.43774029  0.03369707    -0.21900
C907        C  0.55690892  0.41433204  0.06908969     0.01100
H908        H  0.49940561  0.46417773  0.03477966     0.14900
H909        H  0.56564107  0.44589240  0.99733223     0.14900
C910        C  0.98822978  0.02862278  0.13469008     0.82300
N911        N  0.51326142  0.00560988  0.13263770    -0.76000
C912        C  0.98822570  0.45764507  0.13579005     0.84800
N913        N  0.93739001  0.43313970  0.14801729    -0.75900
C914        C  0.91214760  0.45566390  0.15461796     0.84900
N915        N  0.93737944  0.00292425  0.14662429    -0.77600
N916        N  0.91538736  0.08579089  0.39637257    -0.01400
C917        C  0.90448773  0.06877028  0.44240593     0.01200
C918        C  0.94826070  0.08983382  0.97003013    -0.21700
C919        C  0.98625041  0.12385771  0.94116017    -0.21900
C920        C  0.96151200  0.12781401  0.40160968     0.01100
H921        H  0.95027780  0.08643179  0.00899758     0.14900
H922        H  0.02346489  0.15130311  0.95494321     0.14900
N923        N  0.58022625  0.18322806  0.05055772    -0.01400
C924        C  0.55503682  0.20484184  0.05846302     0.01200
C925        C  0.58160738  0.24062764  0.59194031    -0.21700
C926        C  0.62904776  0.24734300  0.59544890    -0.21900
C927        C  0.62726905  0.21126738  0.07066620     0.01100
H928        H  0.57138999  0.26503763  0.60350619     0.14900
H929        H  0.66413204  0.28074001  0.60230343     0.14900
N930        N  0.91703567  0.32872169  0.40076392    -0.01400
C931        C  0.90432274  0.33504502  0.44653164     0.01200
C932        C  0.94702583  0.35732832  0.97567966    -0.21700
C933        C  0.98637601  0.36212746  0.94728765    -0.21900
C934        C  0.96406405  0.33473628  0.40545611     0.01100
H935        H  0.94763984  0.36276647  0.01481841     0.14900
H936        H  0.02277753  0.37119796  0.96203442     0.14900
O937        O  0.56446695  0.31870656  0.48001630    -0.69700
O938        O  0.00623254  0.21146277  0.39606918    -0.69900
O939        O  0.01049596  0.29630107  0.39823679    -0.69700
O940        O  0.55805551  0.23759752  0.48098429    -0.69800
O941        O  0.48754706  0.20706411  0.02330133    -0.69700
O942        O  0.93857742  0.26075308  0.93812999    -0.69700
O943        O  0.93618609  0.17751683  0.93880901    -0.69700
O944        O  0.49442906  0.28818755  0.02290241    -0.69900
V945        V  0.03285107  0.26503470  0.43881709     1.35200
V946        V  0.96488281  0.23391112  0.97899818     1.35200
C947        C  0.54179689  0.32016072  0.01781104     0.79600
C948        C  0.96523961  0.17385393  0.40830626     0.79600
C949        C  0.96892778  0.29319506  0.40948232     0.79500
C950        C  0.53183928  0.21507443  0.01823745     0.79500
O951        O  0.84132622  0.28023329  0.00341775    -0.69700
O952        O  0.71046378  0.22388695  0.06660807    -0.69900
O953        O  0.75129991  0.19425784  0.00097918    -0.69700
O954        O  0.80058921  0.30717255  0.07092212    -0.69800
O955        O  0.76760201  0.32865599  0.51604941    -0.69700
O956        O  0.73408616  0.22098820  0.43769937    -0.69700
O957        O  0.68249133  0.24089725  0.50314945    -0.69700
O958        O  0.81612591  0.30888615  0.44872070    -0.69900
V959        V  0.77510956  0.25136815  0.03424637     1.35200
V960        V  0.74991826  0.27414957  0.47767746     1.35200
C961        C  0.85169963  0.30659376  0.46677447     0.79600
C962        C  0.67433354  0.22330106  0.04500223     0.79600
C963        C  0.73952253  0.19025813  0.45645940     0.79500
C964        C  0.79431633  0.33781796  0.05454823     0.79500
N965        N  0.59047612  0.39818735  0.06320388    -0.01400
C966        C  0.57500291  0.35241757  0.05772947     0.01200
C967        C  0.61594743  0.34949917  0.56976643    -0.21700
C968        C  0.65512310  0.39285541  0.58479445    -0.21900
C969        C  0.64027527  0.42369255  0.07833080     0.01100
H970        H  0.62250185  0.32307073  0.55663315     0.14900
H971        H  0.69447398  0.40232014  0.58632848     0.14900
N972        N  0.72017573  0.11233451  0.42696030    -0.01400
C973        C  0.75350880  0.09892928  0.43364030     0.01200
C974        C  0.80330932  0.13744217  0.93285708    -0.21700
C975        C  0.80105514  0.17563606  0.92694882    -0.21900
C976        C  0.74963786  0.16005599  0.42700097     0.01100
H977        H  0.83730026  0.13826574  0.94303298     0.14900
H978        H  0.83321970  0.21158794  0.93261282     0.14900
N979        N  0.80758499  0.40767130  0.09852079    -0.01400
C980        C  0.82668141  0.38583032  0.07305889     0.01200
C981        C  0.86678474  0.41632079  0.54303969    -0.21700
C982        C  0.86781105  0.45673885  0.54396499    -0.21900
C983        C  0.82808717  0.44870926  0.07427293     0.01100
H984        H  0.88520947  0.40697277  0.51548731     0.14900
H985        H  0.88713232  0.48416084  0.51714125     0.14900
O986        O  0.84634899  0.06890330  0.00175084    -0.69700
O987        O  0.71864820  0.49954543  0.07231521    -0.69900
O988        O  0.80784827  0.50516904  0.07095382    -0.69700
O989        O  0.75807370  0.06807869  0.00586322    -0.69800
O990        O  0.73865508  0.02250125  0.44158620    -0.69700
O991        O  0.76785038  0.44671758  0.51874502    -0.69700
O992        O  0.68584442  0.45519550  0.50719692    -0.69700
O993        O  0.81636068  0.01034620  0.44956931    -0.69900
V994        V  0.78189738  0.53485603  0.03652940     1.35200
V995        V  0.75210448  0.48424804  0.48052777     1.35200
C996        C  0.85365248  0.04894556  0.46529481     0.79600
C997        C  0.68077755  0.46386238  0.05110372     0.79600
C998        C  0.79733868  0.46580365  0.05586842     0.79500
C999        C  0.74501747  0.05936595  0.46162895     0.79500
N1000       N  0.62848703  0.06769183  0.40026556    -0.01400
C1001       C  0.58306324  0.04187406  0.42509555     0.01200
C1002       C  0.59272092  0.04338299  0.47443702    -0.21700
C1003       C  0.64490372  0.06992235  0.48096899    -0.21900
C1004       C  0.66587903  0.08410846  0.43517645     0.01100
H1005       H  0.56501306  0.02734138  0.50301549     0.14900
H1006       H  0.66534601  0.07799346  0.51528031     0.14900
N1007       N  0.91002477  0.05492545  0.35682113    -0.01400
C1008       C  0.93547147  0.03229302  0.34933097     0.01200
C1009       C  0.93075953  0.01824502  0.30073626    -0.21700
C1010       C  0.89984896  0.02910384  0.27787170    -0.21900
C1011       C  0.88922765  0.05255264  0.31216333     0.01100
H1012       H  0.94843253  0.00178570  0.28347303     0.14900
H1013       H  0.88826121  0.02242920  0.23987062     0.14900
C1014       C  0.95407360  0.01152622  0.38467998     0.82300
N1015       N  0.92896642  0.46341168  0.38251475    -0.76000
C1016       C  0.95391238  0.44046169  0.38567071     0.84800
N1017       N  0.00474299  0.46683400  0.39794997    -0.75900
C1018       C  0.53007965  0.01466385  0.40460683     0.84900
N1019       N  0.00493409  0.03672369  0.39665170    -0.77600
N1020       N  0.90930530  0.35088871  0.36138429    -0.01400
C1021       C  0.93451370  0.39830868  0.35179158     0.01200
C1022       C  0.92601691  0.40312768  0.30347419    -0.21700
C1023       C  0.89284934  0.35923871  0.28352684    -0.21900
C1024       C  0.88536003  0.32825113  0.31892238     0.01100
H1025       H  0.94260709  0.43573191  0.28467272     0.14900
H1026       H  0.87650912  0.35098952  0.24714897     0.14900
N1027       N  0.52512874  0.38281541  0.15077734    -0.01400
C1028       C  0.53783564  0.40172254  0.19661794     0.01200
C1029       C  0.49509374  0.38119244  0.22567461    -0.21700
C1030       C  0.45574017  0.34666751  0.19713253    -0.21900
C1031       C  0.47808841  0.34169298  0.15532050     0.01100
H1032       H  0.49442751  0.38591770  0.26482751     0.14900
H1033       H  0.41928532  0.31925233  0.21175361     0.14900
N1034       N  0.86197535  0.07393101  0.30067107    -0.01400
C1035       C  0.88726624  0.12082823  0.30844180     0.01200
C1036       C  0.86092437  0.13014810  0.34201676    -0.21700
C1037       C  0.81350282  0.08933200  0.34579404    -0.21900
C1038       C  0.81504652  0.05493056  0.32095652     0.01100
H1039       H  0.87119388  0.16485017  0.35346524     0.14900
H1040       H  0.77848982  0.08763521  0.35272391     0.14900
N1041       N  0.63457627  0.07104586  0.34848478    -0.01400
C1042       C  0.61552215  0.03001468  0.32310940     0.01200
C1043       C  0.57538001  0.02019210  0.29303800    -0.21700
C1044       C  0.57429228  0.05955221  0.29384077    -0.21900
C1045       C  0.61400927  0.09143538  0.32414687     0.01100
H1046       H  0.55696610  0.99231176  0.26552806     0.14900
H1047       H  0.55493445  0.06751914  0.26694700     0.14900
N1048       N  0.72208946  0.36326762  0.17704423    -0.01400
C1049       C  0.68890760  0.31641401  0.18362056     0.01200
C1050       C  0.63904646  0.30484536  0.18296258    -0.21700
C1051       C  0.64109849  0.34521686  0.17717320    -0.21900
C1052       C  0.69246713  0.38129414  0.17725564     0.01100
H1053       H  0.60515698  0.27152951  0.19312180     0.14900
H1054       H  0.60886003  0.34879087  0.18294275     0.14900
O1055       O  0.60070352  0.40979716  0.25358672    -0.69700
O1056       O  0.73165634  0.98432185  0.31687817    -0.69900
O1057       O  0.64165759  0.97754430  0.32113391    -0.69700
O1058       O  0.69056337  0.41374508  0.25121011    -0.69800
O1059       O  0.70806792  0.45785010  0.18800186    -0.69700
O1060       O  0.67466234  0.03204653  0.26625515    -0.69700
O1061       O  0.75969572  0.02944442  0.25351391    -0.65500
O1062       O  0.62612137  0.46368921  0.19885758    -0.69900
V1063       V  0.66695750  0.44714688  0.28446535     1.35200
V1064       V  0.69228600  0.49520178  0.22793186     1.35200
C1065       C  0.59043835  0.42582752  0.21692082     0.79600
C1066       C  0.76784289  0.01992745  0.29531850     0.79600
C1067       C  0.64793452  0.01446257  0.30471544     0.79500
C1068       C  0.70249501  0.42160828  0.20674371     0.79500
N1069       N  0.52683531  0.14160300  0.14627556    -0.01400
C1070       C  0.53772517  0.13551472  0.19232800     0.01200
C1071       C  0.49398081  0.11276631  0.21993724    -0.21700
C1072       C  0.45598192  0.10867413  0.19101812    -0.21900
C1073       C  0.48070641  0.13738170  0.15145751     0.01100
H1074       H  0.49198619  0.10735685  0.25890354     0.14900
H1075       H  0.41877679  0.09883798  0.20476693     0.14900
N1076       N  0.85184621  0.27844121  0.31305364    -0.01400
C1077       C  0.86732477  0.24819208  0.30750858     0.01200
C1078       C  0.82632786  0.20416621  0.31927679    -0.21700
C1079       C  0.78707169  0.20817820  0.33411087    -0.21900
C1080       C  0.80200097  0.25396296  0.32797606     0.01100
H1081       H  0.81986818  0.17120666  0.30610501     0.14900
H1082       H  0.74771910  0.17819093  0.33550368     0.14900
O1083       O  0.87788281  0.22518692  0.22976714    -0.69700
O1084       O  0.43591964  0.17612537  0.14594124    -0.69900
O1085       O  0.88417024  0.15044160  0.23088264    -0.69700
O1086       O  0.43173453  0.25671779  0.14801702    -0.69800
O1087       O  0.50364258  0.29331914  0.18801063    -0.69700
O1088       O  0.95479467  0.19055265  0.27312188    -0.69700
O1089       O  0.50607223  0.21251074  0.18860688    -0.69700
O1090       O  0.94790559  0.26476287  0.27277969    -0.69900
V1091       V  0.90939048  0.20309566  0.18864445     1.35200
V1092       V  0.97740645  0.24011621  0.22883873     1.35200
C1093       C  0.90055714  0.24931007  0.26762128     0.79600
C1094       C  0.47696805  0.17967539  0.15813150     0.79600
C1095       C  0.91044075  0.15421253  0.26813342     0.79500
C1096       C  0.47327226  0.29529951  0.15932548     0.79500
O1097       O  0.67421883  0.14971548  0.26859182    -0.69700
O1098       O  0.70358156  0.25477603  0.19141403    -0.69900
O1099       O  0.75642146  0.24026479  0.25691876    -0.69700
O1100       O  0.62569581  0.16486231  0.19952690    -0.69800
O1101       O  0.59619849  0.19386264  0.25160187    -0.69700
O1102       O  0.72387435  0.25170600  0.32221258    -0.69700
O1103       O  0.68488828  0.28126190  0.25585415    -0.69700
O1104       O  0.63431758  0.16821388  0.32071753    -0.69900
V1105       V  0.69006292  0.20303313  0.23035964     1.35200
V1106       V  0.66063641  0.22402503  0.28641889     1.35200
C1107       C  0.64473587  0.13931197  0.30567385     0.79600
C1108       C  0.69759331  0.28545603  0.21154064     0.79600
C1109       C  0.76161250  0.25386756  0.30089318     0.79500
C1110       C  0.58862554  0.16643585  0.21519848     0.79500
N1111       N  0.81374494  0.41036577  0.65029868    -0.01400
C1112       C  0.85918557  0.42989216  0.67510841     0.01200
C1113       C  0.84958749  0.42184091  0.72446431    -0.21700
C1114       C  0.79742271  0.39634952  0.73102653    -0.21900
C1115       C  0.77639639  0.38955799  0.68524694     0.01100
H1116       H  0.87729486  0.43347879  0.75302007     0.14900
H1117       H  0.77702530  0.38402113  0.76534728     0.14900
N1118       N  0.53221329  0.11611383  0.60673758    -0.01400
C1119       C  0.50687400  0.06797675  0.59929258     0.01200
C1120       C  0.51160750  0.05861388  0.55072909    -0.21700
C1121       C  0.54244671  0.10042529  0.52783645    -0.21900
C1122       C  0.55298666  0.13454604  0.56208182     0.01100
H1123       H  0.49392711  0.02441259  0.53346668     0.14900
H1124       H  0.55401916  0.10532974  0.48984581     0.14900
N1125       N  0.53291797  0.41286878  0.61153255    -0.01400
C1126       C  0.50755440  0.43488006  0.60191834     0.01200
C1127       C  0.51605433  0.44824438  0.55362153    -0.21700
C1128       C  0.54931746  0.43774232  0.53370189    -0.21900
C1129       C  0.55690941  0.41433291  0.56909417     0.01100
H1130       H  0.49940562  0.46417724  0.53478288     0.14900
H1131       H  0.56564475  0.44589581  0.49733774     0.14900
C1132       C  0.98822737  0.02861918  0.63469246     0.82300
N1133       N  0.51325967  0.00560695  0.63264119    -0.76000
C1134       C  0.98822293  0.45764130  0.63579122     0.84800
N1135       N  0.93738674  0.43313557  0.64801628    -0.75900
C1136       C  0.91214421  0.45565967  0.65461625     0.84900
N1137       N  0.93737699  0.00292127  0.64662680    -0.77600
N1138       N  0.91538841  0.08578985  0.89637246    -0.01400
C1139       C  0.90448869  0.06877097  0.94240647     0.01200
C1140       C  0.94825975  0.08983171  0.47002946    -0.21700
C1141       C  0.98624938  0.12385729  0.44116091    -0.21900
C1142       C  0.96151307  0.12781327  0.90160827     0.01100
H1143       H  0.95027681  0.08642780  0.50899657     0.14900
H1144       H  0.02346347  0.15130229  0.45494477     0.14900
N1145       N  0.58022238  0.18322412  0.55055585    -0.01400
C1146       C  0.55503323  0.20483769  0.55846511     0.01200
C1147       C  0.58160795  0.24063122  0.09193965    -0.21700
C1148       C  0.62904733  0.24734516  0.09545451    -0.21900
C1149       C  0.62726748  0.21126482  0.57065953     0.01100
H1150       H  0.57139024  0.26504135  0.10350346     0.14900
H1151       H  0.66413103  0.28074172  0.10231051     0.14900
N1152       N  0.91703252  0.32871770  0.90076526    -0.01400
C1153       C  0.90432118  0.33504234  0.94653325     0.01200
C1154       C  0.94702647  0.35733007  0.47567951    -0.21700
C1155       C  0.98637746  0.36212948  0.44728856    -0.21900
C1156       C  0.96406153  0.33473349  0.90545589     0.01100
H1157       H  0.94763923  0.36276718  0.51481825     0.14900
H1158       H  0.02277821  0.37119901  0.46203664     0.14900
O1159       O  0.56446886  0.31870542  0.98000945    -0.69700
O1160       O  0.00623206  0.21146208  0.89606567    -0.69900
O1161       O  0.01049533  0.29630043  0.89823463    -0.69700
O1162       O  0.55805668  0.23759608  0.98097843    -0.69800
O1163       O  0.48754419  0.20706207  0.52330506    -0.69700
O1164       O  0.93857774  0.26075553  0.43813164    -0.69700
O1165       O  0.93618421  0.17751773  0.43880902    -0.69700
O1166       O  0.49442769  0.28818641  0.52291036    -0.69900
V1167       V  0.03285217  0.26503453  0.93881345     1.35200
V1168       V  0.96488041  0.23391106  0.47899986     1.35200
C1169       C  0.54179525  0.32016042  0.51781872     0.79600
C1170       C  0.96524016  0.17385304  0.90830456     0.79600
C1171       C  0.96892665  0.29319316  0.90948088     0.79500
C1172       C  0.53183671  0.21507308  0.51824143     0.79500
O1173       O  0.84132716  0.28023652  0.50341577    -0.69700
O1174       O  0.71046048  0.22388180  0.56659866    -0.69900
O1175       O  0.75130481  0.19425863  0.50097215    -0.69700
O1176       O  0.80058192  0.30716978  0.57091743    -0.69800
O1177       O  0.76760308  0.32865712  0.01605896    -0.69700
O1178       O  0.73408639  0.22099102  0.93770610    -0.69700
O1179       O  0.68249311  0.24089927  0.00315757    -0.69700
O1180       O  0.81612620  0.30888843  0.94872786    -0.69900
V1181       V  0.77510826  0.25136716  0.53424029     1.35200
V1182       V  0.74991919  0.27415174  0.97768530     1.35200
C1183       C  0.85169887  0.30659238  0.96677798     0.79600
C1184       C  0.67433080  0.22329717  0.54499341     0.79600
C1185       C  0.73951933  0.19025892  0.95646607     0.79500
C1186       C  0.79431174  0.33781596  0.55454114     0.79500
N1187       N  0.59047605  0.39818781  0.56320865    -0.01400
C1188       C  0.57500157  0.35241756  0.55773683     0.01200
C1189       C  0.61594869  0.34949916  0.06975933    -0.21700
C1190       C  0.65512310  0.39285471  0.08479005    -0.21900
C1191       C  0.64027575  0.42369338  0.57833387     0.01100
H1192       H  0.62250378  0.32307117  0.05662545     0.14900
H1193       H  0.69447408  0.40231973  0.08632557     0.14900
N1194       N  0.72017408  0.11233627  0.92696397    -0.01400
C1195       C  0.75350807  0.09893160  0.93364055     0.01200
C1196       C  0.80331029  0.13743933  0.43285694    -0.21700
C1197       C  0.80105716  0.17563320  0.42694371    -0.21900
C1198       C  0.74963559  0.16005786  0.92700714     0.01100
H1199       H  0.83730064  0.13826263  0.44303460     0.14900
H1200       H  0.83322220  0.21158524  0.43260649     0.14900
N1201       N  0.80758187  0.40766835  0.59851840    -0.01400
C1202       C  0.82667689  0.38582802  0.57305295     0.01200
C1203       C  0.86678784  0.41632166  0.04304351    -0.21700
C1204       C  0.86781101  0.45673822  0.04396322    -0.21900
C1205       C  0.82808624  0.44870847  0.57427415     0.01100
H1206       H  0.88521279  0.40697233  0.01549258     0.14900
H1207       H  0.88713019  0.48415777  0.01713685     0.14900
O1208       O  0.84634916  0.06890124  0.50175274    -0.69700
O1209       O  0.71864752  0.49954702  0.57231502    -0.69900
O1210       O  0.80784514  0.50516671  0.57095621    -0.69700
O1211       O  0.75807481  0.06807778  0.50586367    -0.69800
O1212       O  0.73865869  0.02250502  0.94158403    -0.69700
O1213       O  0.76784778  0.44671666  0.01874714    -0.69700
O1214       O  0.68584408  0.45519774  0.00719485    -0.69700
O1215       O  0.81636184  0.01034630  0.94957008    -0.69900
V1216       V  0.78189777  0.53485580  0.53653041     1.35200
V1217       V  0.75210476  0.48424791  0.98052766     1.35200
C1218       C  0.85365316  0.04894646  0.96529463     0.79600
C1219       C  0.68077758  0.46386219  0.55110496     0.79600
C1220       C  0.79733825  0.46580289  0.55586850     0.79500
C1221       C  0.74501830  0.05936821  0.96162794     0.79500
N1222       N  0.62848533  0.06768650  0.90026794    -0.01400
C1223       C  0.58306126  0.04186860  0.92509761     0.01200
C1224       C  0.59271897  0.04338335  0.97443973    -0.21700
C1225       C  0.64490157  0.06992563  0.98097257    -0.21900
C1226       C  0.66587728  0.08410848  0.93517967     0.01100
H1227       H  0.56501075  0.02734432  0.00301901     0.14900
H1228       H  0.66534361  0.07800146  0.01528465     0.14900
N1229       N  0.91002496  0.05492298  0.85682221    -0.01400
C1230       C  0.93547158  0.03229037  0.84933245     0.01200
C1231       C  0.93075948  0.01824188  0.80073794    -0.21700
C1232       C  0.89984858  0.02910012  0.77787322    -0.21900
C1233       C  0.88922789  0.05254969  0.81216427     0.01100
H1234       H  0.94843219  0.00178202  0.78347518     0.14900
H1235       H  0.88826023  0.02242466  0.73987228     0.14900
C1236       C  0.95407264  0.01152255  0.88468131     0.82300
N1237       N  0.92896355  0.46340679  0.88251655    -0.76000
C1238       C  0.95390953  0.44045666  0.88566979     0.84800
N1239       N  0.00474063  0.46682860  0.89794807    -0.75900
C1240       C  0.53007749  0.01465824  0.90460837     0.84900
N1241       N  0.00493290  0.03671980  0.89665378    -0.77600
N1242       N  0.90930018  0.35088290  0.86138531    -0.01400
C1243       C  0.93450797  0.39830254  0.85179124     0.01200
C1244       C  0.92600843  0.40311972  0.80347409    -0.21700
C1245       C  0.89284037  0.35922994  0.78352832    -0.21900
C1246       C  0.88535314  0.32824363  0.81892457     0.01100
H1247       H  0.94259833  0.43572317  0.78467136     0.14900
H1248       H  0.87649906  0.35097943  0.74715088     0.14900
N1249       N  0.52512492  0.38281137  0.65077928    -0.01400
C1250       C  0.53783269  0.40171724  0.69662020     0.01200
C1251       C  0.49509120  0.38118651  0.72567760    -0.21700
C1252       C  0.45573716  0.34666241  0.69713509    -0.21900
C1253       C  0.47808467  0.34168878  0.65532196     0.01100
H1254       H  0.49442526  0.38591080  0.76483063     0.14900
H1255       H  0.41928243  0.31924705  0.71175590     0.14900
N1256       N  0.86197458  0.07392700  0.80067184    -0.01400
C1257       C  0.88726419  0.12082396  0.80844285     0.01200
C1258       C  0.86092287  0.13014295  0.84201946    -0.21700
C1259       C  0.81350238  0.08932601  0.84579815    -0.21900
C1260       C  0.81504631  0.05492574  0.82095836     0.01100
H1261       H  0.87119156  0.16484471  0.85346825     0.14900
H1262       H  0.77848885  0.08762780  0.85272983     0.14900
N1263       N  0.63457507  0.07104107  0.84848731    -0.01400
C1264       C  0.61552184  0.03001002  0.82311198     0.01200
C1265       C  0.57537849  0.02018594  0.79304160    -0.21700
C1266       C  0.57428879  0.05954507  0.79384488    -0.21900
C1267       C  0.61400635  0.09142930  0.82414982     0.01100
H1268       H  0.55696466  0.99230535  0.76553197     0.14900
H1269       H  0.55492961  0.06751089  0.76695171     0.14900
N1270       N  0.72208621  0.36325884  0.67704185    -0.01400
C1271       C  0.68890521  0.31640494  0.68361742     0.01200
C1272       C  0.63904383  0.30483573  0.68296152    -0.21700
C1273       C  0.64109480  0.34520696  0.67717402    -0.21900
C1274       C  0.69246315  0.38128463  0.67725530     0.01100
H1275       H  0.60515510  0.27151969  0.69312137     0.14900
H1276       H  0.60885627  0.34878043  0.68294542     0.14900
O1277       O  0.60070106  0.40979112  0.75358753    -0.69700
O1278       O  0.73165672  0.98431772  0.81687981    -0.69900
O1279       O  0.64165855  0.97754059  0.82113655    -0.69700
O1280       O  0.69055960  0.41373649  0.75120917    -0.69800
O1281       O  0.70806538  0.45784141  0.68800065    -0.69700
O1282       O  0.67466222  0.03204251  0.76625742    -0.69700
O1283       O  0.75969569  0.02944053  0.75351565    -0.65500
O1284       O  0.62611942  0.46368175  0.69885666    -0.69900
V1285       V  0.66695579  0.44713993  0.78446454     1.35200
V1286       V  0.69228439  0.49519414  0.72793028     1.35200
C1287       C  0.59043586  0.42582130  0.71692159     0.79600
C1288       C  0.76784294  0.01992334  0.79532015     0.79600
C1289       C  0.64793482  0.01445858  0.80471795     0.79500
C1290       C  0.70249158  0.42159932  0.70674284     0.79500
N1291       N  0.52683292  0.14159852  0.64627517    -0.01400
C1292       C  0.53772276  0.13550882  0.69232687     0.01200
C1293       C  0.49397901  0.11276106  0.71993681    -0.21700
C1294       C  0.45598019  0.10866997  0.69101873    -0.21900
C1295       C  0.48070415  0.13737735  0.65145792     0.01100
H1296       H  0.49198516  0.10735149  0.75890312     0.14900
H1297       H  0.41877509  0.09883386  0.70476815     0.14900
N1298       N  0.85184081  0.27843324  0.81305732    -0.01400
C1299       C  0.86732026  0.24818490  0.80751124     0.01200
C1300       C  0.82632367  0.20415824  0.81927796    -0.21700
C1301       C  0.78706633  0.20816876  0.83411098    -0.21900
C1302       C  0.80199493  0.25395354  0.82797749     0.01100
H1303       H  0.81986535  0.17119921  0.80610565     0.14900
H1304       H  0.74771392  0.17818077  0.83550347     0.14900
O1305       O  0.87787911  0.22518309  0.72976855    -0.69700
O1306       O  0.43591768  0.17612119  0.64594029    -0.69900
O1307       O  0.88416590  0.15043752  0.73088454    -0.69700
O1308       O  0.43173168  0.25671347  0.64801630    -0.69800
O1309       O  0.50363932  0.29331473  0.68801056    -0.69700
O1310       O  0.95479140  0.19054776  0.77312238    -0.69700
O1311       O  0.50606983  0.21250663  0.68860653    -0.69700
O1312       O  0.94790128  0.26475702  0.77278226    -0.69900
V1313       V  0.90938638  0.20309147  0.68864602     1.35200
V1314       V  0.97740244  0.24011151  0.72884024     1.35200
C1315       C  0.90055302  0.24930468  0.76762357     0.79600
C1316       C  0.47696588  0.17967113  0.65813119     0.79600
C1317       C  0.91043720  0.15420820  0.76813462     0.79500
C1318       C  0.47326900  0.29529530  0.65932561     0.79500
O1319       O  0.67421643  0.14970865  0.76859448    -0.69700
O1320       O  0.70357679  0.25476550  0.69141139    -0.69900
O1321       O  0.75641792  0.24025772  0.75691872    -0.69700
O1322       O  0.62569193  0.16485186  0.69952780    -0.69800
O1323       O  0.59619694  0.19385833  0.75159765    -0.69700
O1324       O  0.72386883  0.25169647  0.82221257    -0.69700
O1325       O  0.68488901  0.28125556  0.75585175    -0.69700
O1326       O  0.63431045  0.16820620  0.82071516    -0.69900
V1327       V  0.69005939  0.20302438  0.73035953     1.35200
V1328       V  0.66063290  0.22401800  0.78641676     1.35200
C1329       C  0.64473150  0.13930520  0.80567493     0.79600
C1330       C  0.69759167  0.28544756  0.71153767     0.79600
C1331       C  0.76160756  0.25385889  0.80089371     0.79500
C1332       C  0.58862299  0.16642886  0.71519680     0.79500
N1333       N  0.81375680  0.91037415  0.15029790    -0.01400
C1334       C  0.85919760  0.92989722  0.17510675     0.01200
C1335       C  0.84959995  0.92184676  0.22446260    -0.21700
C1336       C  0.79743535  0.89635959  0.23102597    -0.21900
C1337       C  0.77640862  0.88956966  0.18524670     0.01100
H1338       H  0.87730873  0.93348270  0.25301804     0.14900
H1339       H  0.77703821  0.88403256  0.26534711     0.14900
N1340       N  0.53221156  0.61611523  0.10673735    -0.01400
C1341       C  0.50686651  0.56797759  0.09929254     0.01200
C1342       C  0.51159685  0.55861313  0.05072872    -0.21700
C1343       C  0.54243913  0.60042344  0.02783541    -0.21900
C1344       C  0.55298439  0.63454557  0.06208091     0.01100
H1345       H  0.49391305  0.52441110  0.03346649     0.14900
H1346       H  0.55401098  0.60532657  0.98984466     0.14900
N1347       N  0.53293066  0.91287430  0.11152743    -0.01400
C1348       C  0.50756620  0.93488475  0.10191279     0.01200
C1349       C  0.51606032  0.94824365  0.05361439    -0.21700
C1350       C  0.54932114  0.93773903  0.03369354    -0.21900
C1351       C  0.55691711  0.91433321  0.06908721     0.01100
H1352       H  0.49940946  0.96417502  0.03477564     0.14900
H1353       H  0.56564487  0.94588926  0.99732795     0.14900
C1354       C  0.98822138  0.52862123  0.13469150     0.82300
N1355       N  0.51325316  0.50560803  0.13264041    -0.76000
C1356       C  0.98823466  0.95764684  0.13578614     0.84800
N1357       N  0.93739882  0.93314089  0.14801288    -0.75900
C1358       C  0.91215595  0.95566461  0.15461389     0.84900
N1359       N  0.93737118  0.50292329  0.14662645    -0.77600
N1360       N  0.91537886  0.58578683  0.39636906    -0.01400
C1361       C  0.90447735  0.56876377  0.44240155     0.01200
C1362       C  0.94824909  0.58982465  0.97002575    -0.21700
C1363       C  0.98623972  0.62384973  0.94115758    -0.21900
C1364       C  0.96150398  0.62780925  0.40160874     0.01100
H1365       H  0.95026545  0.58642096  0.00899305     0.14900
H1366       H  0.02345360  0.65129440  0.95494211     0.14900
N1367       N  0.58022517  0.68322371  0.05055476    -0.01400
C1368       C  0.55503819  0.70483984  0.05845980     0.01200
C1369       C  0.58160591  0.74062399  0.59194119    -0.21700
C1370       C  0.62904394  0.74733492  0.59545437    -0.21900
C1371       C  0.62726769  0.71126070  0.07066472     0.01100
H1372       H  0.57139098  0.76503589  0.60350625     0.14900
H1373       H  0.66412901  0.78073016  0.60231142     0.14900
N1374       N  0.91703261  0.82871976  0.40076536    -0.01400
C1375       C  0.90431923  0.83504236  0.44653319     0.01200
C1376       C  0.94702481  0.85732604  0.97567706    -0.21700
C1377       C  0.98637484  0.86212500  0.94728493    -0.21900
C1378       C  0.96406036  0.83473320  0.40545813     0.01100
H1379       H  0.94763901  0.86276422  0.01481584     0.14900
H1380       H  0.02277615  0.87119493  0.96203157     0.14900
O1381       O  0.56446582  0.81870389  0.48001091    -0.69700
O1382       O  0.00622696  0.71145819  0.39606877    -0.69900
O1383       O  0.01049038  0.79629645  0.39823577    -0.69700
O1384       O  0.55805353  0.73759426  0.48098186    -0.69800
O1385       O  0.48754767  0.70706253  0.02330068    -0.69700
O1386       O  0.93857534  0.76075133  0.93812786    -0.69700
O1387       O  0.93618100  0.67751367  0.93880800    -0.69700
O1388       O  0.49443113  0.78818654  0.02290157    -0.69900
V1389       V  0.03284785  0.76503142  0.43881522     1.35200
V1390       V  0.96488109  0.73390940  0.97899557     1.35200
C1391       C  0.54179879  0.82015913  0.01780777     0.79600
C1392       C  0.96523373  0.67385001  0.40830678     0.79600
C1393       C  0.96892336  0.79319155  0.40948397     0.79500
C1394       C  0.53183941  0.71507207  0.01823498     0.79500
O1395       O  0.84132492  0.78022861  0.00341299    -0.69700
O1396       O  0.71046346  0.72388225  0.06660548    -0.69900
O1397       O  0.75129775  0.69425364  0.00097395    -0.69700
O1398       O  0.80059014  0.80716776  0.07091955    -0.69800
O1399       O  0.76759915  0.82865201  0.51605666    -0.69700
O1400       O  0.73408292  0.72098800  0.43769941    -0.69700
O1401       O  0.68248799  0.74089341  0.50315287    -0.69700
O1402       O  0.81612289  0.80888529  0.44872460    -0.69900
V1403       V  0.77510879  0.75136354  0.03424269     1.35200
V1404       V  0.74991509  0.77414733  0.47768105     1.35200
C1405       C  0.85169595  0.80659029  0.46677574     0.79600
C1406       C  0.67433256  0.72329574  0.04500020     0.79600
C1407       C  0.73951712  0.69025595  0.45645756     0.79500
C1408       C  0.79431727  0.83781373  0.05454723     0.79500
N1409       N  0.59048254  0.89818637  0.06320062    -0.01400
C1410       C  0.57500760  0.85241605  0.05772485     0.01200
C1411       C  0.61595149  0.84949253  0.56975610    -0.21700
C1412       C  0.65513012  0.89284763  0.58478275    -0.21900
C1413       C  0.64028245  0.92368986  0.07832562     0.01100
H1414       H  0.62250190  0.82306203  0.55662066     0.14900
H1415       H  0.69448036  0.90231022  0.58631406     0.14900
N1416       N  0.72016890  0.61233290  0.42695587    -0.01400
C1417       C  0.75350120  0.59892676  0.43363506     0.01200
C1418       C  0.80330189  0.63743492  0.93285082    -0.21700
C1419       C  0.80105027  0.67563014  0.92694235    -0.21900
C1420       C  0.74963158  0.66005434  0.42699722     0.01100
H1421       H  0.83729179  0.63825688  0.94302746     0.14900
H1422       H  0.83321598  0.71158139  0.93260703     0.14900
N1423       N  0.80759214  0.90767062  0.09851777    -0.01400
C1424       C  0.82668549  0.88582654  0.07305665     0.01200
C1425       C  0.86678869  0.91631324  0.54304075    -0.21700
C1426       C  0.86781749  0.95673260  0.54396171    -0.21900
C1427       C  0.82809485  0.94870738  0.07426763     0.01100
H1428       H  0.88521084  0.90696156  0.51548905     0.14900
H1429       H  0.88713873  0.98415216  0.51713545     0.14900
O1430       O  0.84633903  0.56890071  0.00174499    -0.69700
O1431       O  0.71865458  0.99954386  0.07231454    -0.69900
O1432       O  0.80785448  0.00516673  0.07095435    -0.69700
O1433       O  0.75806308  0.56807510  0.00585881    -0.69800
O1434       O  0.73864505  0.52249801  0.44158403    -0.69700
O1435       O  0.76786118  0.94671887  0.51874237    -0.69700
O1436       O  0.68585389  0.95519525  0.50719508    -0.69700
O1437       O  0.81634946  0.51034112  0.44956761    -0.69900
V1438       V  0.78190560  0.03485661  0.03653184     1.35200
V1439       V  0.75211483  0.98425034  0.48052773     1.35200
C1440       C  0.85364227  0.54894113  0.46529073     0.79600
C1441       C  0.68078504  0.96386162  0.05110093     0.79600
C1442       C  0.79734707  0.96580318  0.05586475     0.79500
C1443       C  0.74500922  0.55936407  0.46162504     0.79500
N1444       N  0.62848093  0.56769076  0.40025987    -0.01400
C1445       C  0.58305663  0.54187266  0.42508892     0.01200
C1446       C  0.59271286  0.54338149  0.47443071    -0.21700
C1447       C  0.64489572  0.56992075  0.48096376    -0.21900
C1448       C  0.66587209  0.58410720  0.43517145     0.01100
H1449       H  0.56500376  0.52734013  0.50300837     0.14900
H1450       H  0.66533708  0.57799169  0.51527542     0.14900
N1451       N  0.91001774  0.55492313  0.35681624    -0.01400
C1452       C  0.93546479  0.53229105  0.34932511     0.01200
C1453       C  0.93075355  0.51824422  0.30073008    -0.21700
C1454       C  0.89984315  0.52910362  0.27786601    -0.21900
C1455       C  0.88922102  0.55255128  0.31215842     0.01100
H1456       H  0.94842676  0.50178514  0.28346644     0.14900
H1457       H  0.88825570  0.52242975  0.23986493     0.14900
C1458       C  0.95406891  0.51152516  0.38467307     0.82300
N1459       N  0.92897045  0.96341271  0.38252091    -0.76000
C1460       C  0.95391573  0.94046218  0.38567729     0.84800
N1461       N  0.00474574  0.96683364  0.39795909    -0.75900
C1462       C  0.53007366  0.51466219  0.40459926     0.84900
N1463       N  0.00492995  0.53672337  0.39664255    -0.77600
N1464       N  0.90930536  0.85089008  0.36138687    -0.01400
C1465       C  0.93451864  0.89831079  0.35179609     0.01200
C1466       C  0.92602688  0.90313302  0.30347799    -0.21700
C1467       C  0.89285824  0.85924550  0.28352801    -0.21900
C1468       C  0.88536249  0.82825547  0.31892313     0.01100
H1469       H  0.94262035  0.93573801  0.28467776     0.14900
H1470       H  0.87652133  0.85099890  0.24714894     0.14900
N1471       N  0.52513839  0.88281909  0.15077604    -0.01400
C1472       C  0.53784608  0.90172765  0.19661609     0.01200
C1473       C  0.49510450  0.88119966  0.22567314    -0.21700
C1474       C  0.45575010  0.84667441  0.19713216    -0.21900
C1475       C  0.47809716  0.84169784  0.15532040     0.01100
H1476       H  0.49443894  0.88592634  0.26482581     0.14900
H1477       H  0.41929517  0.81926029  0.21175409     0.14900
N1478       N  0.86196912  0.57393024  0.30066669    -0.01400
C1479       C  0.88726024  0.62082734  0.30843898     0.01200
C1480       C  0.86091794  0.63014654  0.34201404    -0.21700
C1481       C  0.81349592  0.58933060  0.34578935    -0.21900
C1482       C  0.81503990  0.55492953  0.32095150     0.01100
H1483       H  0.87118805  0.66484834  0.35346417     0.14900
H1484       H  0.77848279  0.58763379  0.35271872     0.14900
N1485       N  0.63457151  0.57104736  0.34847935    -0.01400
C1486       C  0.61551733  0.53001753  0.32310145     0.01200
C1487       C  0.57537713  0.52019775  0.29302883    -0.21700
C1488       C  0.57429013  0.55955822  0.29383454    -0.21900
C1489       C  0.61400637  0.59143920  0.32414271     0.01100
H1490       H  0.55696376  0.49231902  0.26551714     0.14900
H1491       H  0.55493389  0.56752734  0.26694117     0.14900
N1492       N  0.72209849  0.86327409  0.17704146    -0.01400
C1493       C  0.68891397  0.81642058  0.18361551     0.01200
C1494       C  0.63905401  0.80485483  0.18295467    -0.21700
C1495       C  0.64110967  0.84522813  0.17716633    -0.21900
C1496       C  0.69247916  0.88130368  0.17725077     0.01100
H1497       H  0.60516244  0.77153963  0.19311234     0.14900
H1498       H  0.60887234  0.84880404  0.18293454     0.14900
O1499       O  0.60071376  0.90979895  0.25358274    -0.69700
O1500       O  0.73164977  0.48432053  0.31687571    -0.69900
O1501       O  0.64165322  0.47754738  0.32113245    -0.69700
O1502       O  0.69057650  0.91375156  0.25120720    -0.69800
O1503       O  0.70807814  0.95785858  0.18800130    -0.69700
O1504       O  0.67465446  0.53204388  0.26624753    -0.69700
O1505       O  0.75968754  0.52944037  0.25350935    -0.65500
O1506       O  0.62613096  0.96369621  0.19885973    -0.69900
V1507       V  0.66696598  0.94714852  0.28446469     1.35200
V1508       V  0.69229498  0.99520735  0.22793516     1.35200
C1509       C  0.59044858  0.92583195  0.21691920     0.79600
C1510       C  0.76783591  0.51992515  0.29531438     0.79600
C1511       C  0.64792869  0.51446362  0.30470958     0.79500
C1512       C  0.70250745  0.92161676  0.20674091     0.79500
N1513       N  0.52683367  0.64160279  0.14627381    -0.01400
C1514       C  0.53772487  0.63551567  0.19232617     0.01200
C1515       C  0.49398097  0.61276703  0.21993629    -0.21700
C1516       C  0.45598168  0.60867513  0.19101807    -0.21900
C1517       C  0.48070537  0.63738236  0.15145715     0.01100
H1518       H  0.49198682  0.60735738  0.25890259     0.14900
H1519       H  0.41877686  0.59883950  0.20476777     0.14900
N1520       N  0.85184747  0.77844607  0.31305090    -0.01400
C1521       C  0.86732605  0.74819689  0.30750705     0.01200
C1522       C  0.82632904  0.70417131  0.31927537    -0.21700
C1523       C  0.78707297  0.70818355  0.33410915    -0.21900
C1524       C  0.80200221  0.75396821  0.32797349     0.01100
H1525       H  0.81986906  0.67121166  0.30610323     0.14900
H1526       H  0.74772026  0.67819630  0.33550153     0.14900
O1527       O  0.87788552  0.72519370  0.22976506    -0.69700
O1528       O  0.43592085  0.67612811  0.14594058    -0.69900
O1529       O  0.88416727  0.65044499  0.23088128    -0.69700
O1530       O  0.43173992  0.75672264  0.14801621    -0.69800
O1531       O  0.50364647  0.79332122  0.18801237    -0.69700
O1532       O  0.95479151  0.69055181  0.27312134    -0.69700
O1533       O  0.50607219  0.71251102  0.18860820    -0.69700
O1534       O  0.94790648  0.76476447  0.27278085    -0.69900
V1535       V  0.90939183  0.70310013  0.18864362     1.35200
V1536       V  0.97740672  0.74011729  0.22883985     1.35200
C1537       C  0.90055902  0.74931468  0.26762050     0.79600
C1538       C  0.47696827  0.67967668  0.15813178     0.79600
C1539       C  0.91043662  0.65421322  0.26813195     0.79500
C1540       C  0.47327824  0.79530333  0.15932591     0.79500
O1541       O  0.67421829  0.64971907  0.26858913    -0.69700
O1542       O  0.70358324  0.75477962  0.19141034    -0.69900
O1543       O  0.75642201  0.74026797  0.25691587    -0.69700
O1544       O  0.62569629  0.66486576  0.19952360    -0.69800
O1545       O  0.59619871  0.69386586  0.25159851    -0.69700
O1546       O  0.72387542  0.75171130  0.32220872    -0.69700
O1547       O  0.68488841  0.78126566  0.25584928    -0.69700
O1548       O  0.63431843  0.66821894  0.32071498    -0.69900
V1549       V  0.69006343  0.70303665  0.23035650     1.35200
V1550       V  0.66063705  0.72402939  0.28641517     1.35200
C1551       C  0.64473530  0.63931614  0.30567103     0.79600
C1552       C  0.69759528  0.78546005  0.21153627     0.79600
C1553       C  0.76161341  0.75387202  0.30088988     0.79500
C1554       C  0.58862567  0.66643851  0.21519561     0.79500
N1555       N  0.81375373  0.91036922  0.65029945    -0.01400
C1556       C  0.85919427  0.92989425  0.67510909     0.01200
C1557       C  0.84959590  0.92184386  0.72446509    -0.21700
C1558       C  0.79743093  0.89635428  0.73102723    -0.21900
C1559       C  0.77640498  0.88956313  0.68524743     0.01100
H1560       H  0.87730347  0.93348136  0.75302096     0.14900
H1561       H  0.77703325  0.88402737  0.76534803     0.14900
N1562       N  0.53220577  0.61611076  0.60673790    -0.01400
C1563       C  0.50686275  0.56797335  0.59929354     0.01200
C1564       C  0.51159453  0.55860926  0.55072992    -0.21700
C1565       C  0.54243606  0.60041990  0.52783683    -0.21900
C1566       C  0.55297955  0.63454177  0.56208189     0.01100
H1567       H  0.49391178  0.52440778  0.53346752     0.14900
H1568       H  0.55400837  0.60532335  0.48984602     0.14900
N1569       N  0.53292971  0.91287155  0.61153286    -0.01400
C1570       C  0.50756587  0.93488238  0.60191737     0.01200
C1571       C  0.51606298  0.94824323  0.55361954    -0.21700
C1572       C  0.54932490  0.93773949  0.53370004    -0.21900
C1573       C  0.55691919  0.91433290  0.56909395     0.01100
H1574       H  0.49941303  0.96417485  0.53478020     0.14900
H1575       H  0.56565012  0.94589044  0.49733501     0.14900
C1576       C  0.98821863  0.52861730  0.63469201     0.82300
N1577       N  0.51324889  0.50560427  0.63264370    -0.76000
C1578       C  0.98823148  0.95764296  0.63579080     0.84800
N1579       N  0.93739544  0.93313745  0.64801666    -0.75900
C1580       C  0.91215300  0.95566162  0.65461695     0.84900
N1581       N  0.93736805  0.50291925  0.64662567    -0.77600
N1582       N  0.91537836  0.58578458  0.89636829    -0.01400
C1583       C  0.90447739  0.56876404  0.94240174     0.01200
C1584       C  0.94824872  0.58982287  0.47002596    -0.21700
C1585       C  0.98623953  0.62384992  0.44115975    -0.21900
C1586       C  0.96150357  0.62780721  0.90160587     0.01100
H1587       H  0.95026448  0.58641712  0.50899303     0.14900
H1588       H  0.02345308  0.65129434  0.45494581     0.14900
N1589       N  0.58021937  0.68321996  0.55055568    -0.01400
C1590       C  0.55503261  0.70483590  0.55846369     0.01200
C1591       C  0.58160966  0.74062795  0.09193761    -0.21700
C1592       C  0.62904695  0.74733799  0.09545522    -0.21900
C1593       C  0.62726345  0.71125772  0.57066245     0.01100
H1594       H  0.57139413  0.76503981  0.10350124     0.14900
H1595       H  0.66413170  0.78073305  0.10231321     0.14900
N1596       N  0.91703195  0.82871703  0.90076208    -0.01400
C1597       C  0.90432021  0.83504044  0.94653038     0.01200
C1598       C  0.94702280  0.85732712  0.47568144    -0.21700
C1599       C  0.98637369  0.86212598  0.44729076    -0.21900
C1600       C  0.96406031  0.83473154  0.90545292     0.01100
H1601       H  0.94763558  0.86276430  0.51482018     0.14900
H1602       H  0.02277387  0.87119457  0.46203890     0.14900
O1603       O  0.56446839  0.81870235  0.98000499    -0.69700
O1604       O  0.00622534  0.71145603  0.89606219    -0.69900
O1605       O  0.01049138  0.79629586  0.89822948    -0.69700
O1606       O  0.55805507  0.73759232  0.98097463    -0.69800
O1607       O  0.48754313  0.70705989  0.52330387    -0.69700
O1608       O  0.93857499  0.76075329  0.43813529    -0.69700
O1609       O  0.93618025  0.67751493  0.43881111    -0.69700
O1610       O  0.49442919  0.78818519  0.52290885    -0.69900
V1611       V  0.03284861  0.76503008  0.93880820     1.35200
V1612       V  0.96487940  0.73390894  0.47900140     1.35200
C1613       C  0.54179657  0.82015863  0.51781485     0.79600
C1614       C  0.96523306  0.67384804  0.90830245     0.79600
C1615       C  0.96892396  0.79319031  0.90947745     0.79500
C1616       C  0.53183562  0.71507087  0.51823986     0.79500
O1617       O  0.84132281  0.78023018  0.50341460    -0.69700
O1618       O  0.71045785  0.72387720  0.56660091    -0.69900
O1619       O  0.75129815  0.69425375  0.50097044    -0.69700
O1620       O  0.80058203  0.80716425  0.57091978    -0.69800
O1621       O  0.76760206  0.82865307  0.01605935    -0.69700
O1622       O  0.73408524  0.72098909  0.93770216    -0.69700
O1623       O  0.68249180  0.74089475  0.00315594    -0.69700
O1624       O  0.81612508  0.80888646  0.94872613    -0.69900
V1625       V  0.77510483  0.75136185  0.53424091     1.35200
V1626       V  0.74991801  0.77414860  0.97768354     1.35200
C1627       C  0.85169771  0.80658942  0.96677476     0.79600
C1628       C  0.67432763  0.72329222  0.54499626     0.79600
C1629       C  0.73951719  0.69025595  0.95646091     0.79500
C1630       C  0.79431184  0.83781138  0.55454616     0.79500
N1631       N  0.59048311  0.89818459  0.56320796    -0.01400
C1632       C  0.57500624  0.85241393  0.55773227     0.01200
C1633       C  0.61595292  0.84949581  0.06975130    -0.21700
C1634       C  0.65512943  0.89285078  0.08478041    -0.21900
C1635       C  0.64028401  0.92368759  0.57832987     0.01100
H1636       H  0.62250519  0.82306606  0.05661679     0.14900
H1637       H  0.69447990  0.90231434  0.08631414     0.14900
N1638       N  0.72016800  0.61233264  0.92695733    -0.01400
C1639       C  0.75349987  0.59892563  0.93363393     0.01200
C1640       C  0.80330294  0.63743647  0.43285212    -0.21700
C1641       C  0.80105069  0.67563086  0.42693970    -0.21900
C1642       C  0.74963137  0.66005412  0.92700077     0.01100
H1643       H  0.83729309  0.63825921  0.44303005     0.14900
H1644       H  0.83321615  0.71158257  0.43260328     0.14900
N1645       N  0.80758979  0.90766854  0.59851933    -0.01400
C1646       C  0.82668123  0.88582390  0.57305636     0.01200
C1647       C  0.86679129  0.91631544  0.04303924    -0.21700
C1648       C  0.86781646  0.95673301  0.04395657    -0.21900
C1649       C  0.82809513  0.94870691  0.57427172     0.01100
H1650       H  0.88521396  0.90696357  0.01548825     0.14900
H1651       H  0.88713541  0.98415099  0.01712856     0.14900
O1652       O  0.84634053  0.56889896  0.50174765    -0.69700
O1653       O  0.71865403  0.99954319  0.57231587    -0.69900
O1654       O  0.80785329  0.00516524  0.57095708    -0.69700
O1655       O  0.75806761  0.56807766  0.50585931    -0.69800
O1656       O  0.73864840  0.52249873  0.94158198    -0.69700
O1657       O  0.76785805  0.94671898  0.01874188    -0.69700
O1658       O  0.68585347  0.95519938  0.00719172    -0.69700
O1659       O  0.81635057  0.51033918  0.94956993    -0.69900
V1660       V  0.78190538  0.03485518  0.53653325     1.35200
V1661       V  0.75211509  0.98425227  0.98052623     1.35200
C1662       C  0.85364218  0.54894118  0.96529066     0.79600
C1663       C  0.68078536  0.96385901  0.55110370     0.79600
C1664       C  0.79734817  0.96580269  0.55586662     0.79500
C1665       C  0.74500809  0.55936282  0.96162358     0.79500
N1666       N  0.62848039  0.56768515  0.90025872    -0.01400
C1667       C  0.58305552  0.54186703  0.92508700     0.01200
C1668       C  0.59271105  0.54338069  0.97442944    -0.21700
C1669       C  0.64489350  0.56992258  0.98096396    -0.21900
C1670       C  0.66587096  0.58410644  0.93517167     0.01100
H1671       H  0.56500108  0.52734114  0.00300739     0.14900
H1672       H  0.66533421  0.57799735  0.01527668     0.14900
N1673       N  0.91001613  0.55491868  0.85681728    -0.01400
C1674       C  0.93546366  0.53228686  0.84932757     0.01200
C1675       C  0.93075294  0.51823933  0.80073289    -0.21700
C1676       C  0.89984245  0.52909777  0.77786771    -0.21900
C1677       C  0.88921996  0.55254602  0.81215894     0.01100
H1678       H  0.94842655  0.50177992  0.78347028     0.14900
H1679       H  0.88825516  0.52242305  0.73986644     0.14900
C1680       C  0.95406621  0.51152025  0.88467636     0.82300
N1681       N  0.92897008  0.96340912  0.88251954    -0.76000
C1682       C  0.95391593  0.94045888  0.88567228     0.84800
N1683       N  0.00474663  0.96683046  0.89795229    -0.75900
C1684       C  0.53007266  0.51465681  0.90459661     0.84900
N1685       N  0.00492704  0.53671789  0.89664668    -0.77600
N1686       N  0.90930253  0.85088581  0.86138378    -0.01400
C1687       C  0.93451575  0.89830628  0.85179160     0.01200
C1688       C  0.92602060  0.90312666  0.80347403    -0.21700
C1689       C  0.89285030  0.85923849  0.78352594    -0.21900
C1690       C  0.88535670  0.82824952  0.81892155     0.01100
H1691       H  0.94261402  0.93573119  0.78467239     0.14900
H1692       H  0.87651163  0.85099070  0.74714753     0.14900
N1693       N  0.52513653  0.88281567  0.65078114    -0.01400
C1694       C  0.53784518  0.90172394  0.69662119     0.01200
C1695       C  0.49510408  0.88119625  0.72567904    -0.21700
C1696       C  0.45574910  0.84667128  0.69713833    -0.21900
C1697       C  0.47809505  0.84169465  0.65532573     0.01100
H1698       H  0.49443882  0.88592300  0.76483175     0.14900
H1699       H  0.41929445  0.81925720  0.71176065     0.14900
N1700       N  0.86196666  0.57392332  0.80066596    -0.01400
C1701       C  0.88725570  0.62082010  0.80843883     0.01200
C1702       C  0.86091248  0.63013773  0.84201428    -0.21700
C1703       C  0.81349178  0.58932060  0.84579038    -0.21900
C1704       C  0.81503735  0.55492117  0.82095067     0.01100
H1705       H  0.87118125  0.66483907  0.85346479     0.14900
H1706       H  0.77847778  0.58762161  0.85272170     0.14900
N1707       N  0.63457200  0.57104240  0.84847826    -0.01400
C1708       C  0.61551825  0.53001260  0.82310031     0.01200
C1709       C  0.57537710  0.52019177  0.79302857    -0.21700
C1710       C  0.57428878  0.55955157  0.79383463    -0.21900
C1711       C  0.61400560  0.59143327  0.82414184     0.01100
H1712       H  0.55696346  0.49231266  0.76551731     0.14900
H1713       H  0.55493133  0.56751984  0.76694208     0.14900
N1714       N  0.72209503  0.86326843  0.67704150    -0.01400
C1715       C  0.68890969  0.81641487  0.68361481     0.01200
C1716       C  0.63905010  0.80485032  0.68295571    -0.21700
C1717       C  0.64110684  0.84522433  0.67716906    -0.21900
C1718       C  0.69247664  0.88129900  0.67725254     0.01100
H1719       H  0.60515836  0.77153549  0.69311372     0.14900
H1720       H  0.60887029  0.84880112  0.68293858     0.14900
O1721       O  0.60071406  0.90979494  0.75358584    -0.69700
O1722       O  0.73164833  0.48431237  0.81687373    -0.69900
O1723       O  0.64165403  0.47754242  0.82113198    -0.69700
O1724       O  0.69057707  0.91374790  0.75120917    -0.69800
O1725       O  0.70807758  0.95785453  0.68800314    -0.69700
O1726       O  0.67465386  0.53203735  0.76624541    -0.69700
O1727       O  0.75968606  0.52943256  0.75350758    -0.65500
O1728       O  0.62613031  0.96369202  0.69886277    -0.69900
V1729       V  0.66696652  0.94714466  0.78446695     1.35200
V1730       V  0.69229476  0.99520335  0.72793730     1.35200
C1731       C  0.59044817  0.92582803  0.71692293     0.79600
C1732       C  0.76783424  0.51991711  0.79531263     0.79600
C1733       C  0.64792939  0.51445840  0.80470840     0.79500
C1734       C  0.70250700  0.92161271  0.70674267     0.79500
N1735       N  0.52682833  0.64159753  0.64627522    -0.01400
C1736       C  0.53772031  0.63550915  0.69232654     0.01200
C1737       C  0.49397738  0.61276126  0.71993793    -0.21700
C1738       C  0.45597753  0.60867026  0.69102140    -0.21900
C1739       C  0.48070026  0.63737722  0.65146004     0.01100
H1740       H  0.49198459  0.60735177  0.75890424     0.14900
H1741       H  0.41877335  0.59883505  0.70477220     0.14900
N1742       N  0.85184199  0.77843968  0.81305118    -0.01400
C1743       C  0.86732032  0.74819022  0.80750857     0.01200
C1744       C  0.82632319  0.70416474  0.81927734    -0.21700
C1745       C  0.78706695  0.70817724  0.83410975    -0.21900
C1746       C  0.80199648  0.75396181  0.82797274     0.01100
H1747       H  0.81986341  0.67120485  0.80610650     0.14900
H1748       H  0.74771422  0.67819003  0.83550290     0.14900
O1749       O  0.87788024  0.72518674  0.72976686    -0.69700
O1750       O  0.43591609  0.67612322  0.64594351    -0.69900
O1751       O  0.88416283  0.65043840  0.73088158    -0.69700
O1752       O  0.43173732  0.75671922  0.64801961    -0.69800
O1753       O  0.50364275  0.79331675  0.68801762    -0.69700
O1754       O  0.95478615  0.69054523  0.77312305    -0.69700
O1755       O  0.50606779  0.71250614  0.68861065    -0.69700
O1756       O  0.94790074  0.76475745  0.77278333    -0.69900
V1757       V  0.90938767  0.70309444  0.68864516     1.35200
V1758       V  0.97740185  0.74011107  0.72884248     1.35200
C1759       C  0.90055332  0.74930748  0.76762255     0.79600
C1760       C  0.47696346  0.67967165  0.65813453     0.79600
C1761       C  0.91043172  0.65420645  0.76813257     0.79500
C1762       C  0.47327543  0.79529967  0.65933063     0.79500
O1763       O  0.67421632  0.64971365  0.76858792    -0.69700
O1764       O  0.70357720  0.75477242  0.69140791    -0.69900
O1765       O  0.75641798  0.74026293  0.75691383    -0.69700
O1766       O  0.62569151  0.66485794  0.69952291    -0.69800
O1767       O  0.59619479  0.69385992  0.75159647    -0.69700
O1768       O  0.72386987  0.75170389  0.82220703    -0.69700
O1769       O  0.68488445  0.78125911  0.75584771    -0.69700
O1770       O  0.63431343  0.66821155  0.82071209    -0.69900
V1771       V  0.69005921  0.70303022  0.73035465     1.35200
V1772       V  0.66063239  0.72402254  0.78641312     1.35200
C1773       C  0.64473275  0.63931004  0.80566944     0.79600
C1774       C  0.69759039  0.78545336  0.71153447     0.79600
C1775       C  0.76160842  0.75386581  0.80088828     0.79500
C1776       C  0.58862128  0.66643158  0.71519467     0.79500
loop_ 
_geom_bond_atom_site_label_1 
_geom_bond_atom_site_label_2 
_geom_bond_distance 
_geom_bond_site_symmetry_2 
_ccdc_geom_bond_type 
N1            C5   1.366       .  A
N1            C2   1.369       .  A
N1           N91   1.425       .  S
C2            C3   1.379       .  A
C2           C26   1.488       .  S
C3            C4   1.370       .  A
C3            H6   1.066       .  S
C4            C5   1.374       .  A
C4            H7   1.082       .  S
C5          N160   1.432       .  S
N8           C12   1.368       .  A
N8            C9   1.383       .  A
N8          N181   1.434       .  S
C9           C10   1.383       .  A
C9          C910   1.502   1_455  S
C10          C11   1.365       .  A
C10          H13   1.075   1_455  S
C11          C12   1.367       .  A
C11          H14   1.081   1_554  S
C12          N35   1.426       .  S
N15          C19   1.359       .  A
N15          C16   1.382       .  A
N15         N139   1.423       .  S
C16          C17   1.381       .  A
C16         C912   1.509   1_455  S
C17          C18   1.369       .  A
C17          H20   1.073   1_455  S
C18          C19   1.367       .  A
C18          H21   1.081   1_554  S
C19          N77   1.426       .  S
C22          N27   1.364       .  A
C22         N911   1.372       .  A
C22         C897   1.502       .  S
N23         C910   1.372   1_455  A
N23        C1356   1.372   1_445  A
C24          N25   1.365       .  A
C24        N1355   1.372       .  A
C24         C904   1.509       .  S
N25          C26   1.371       .  A
C26         N471   1.368       .  A
N27         C470   1.368   1_545  A
N28          C32   1.367       .  A
N28          C29   1.357       .  A
N28         N119   1.434       .  S
C29         C252   1.367       .  A
C29         C108   1.475       .  S
C30          C31   1.371       .  A
C30         C251   1.367       .  A
C30          H33   1.080   1_556  S
C31         C254   1.385       .  A
C31          H34   1.079       .  S
C32         C253   1.385       .  A
C32          C60   1.510       .  S
N35          C39   1.349       .  A
N35          C36   1.348       .  A
C36         C259   1.366       .  A
C36          C62   1.470       .  S
C37          C38   1.368       .  A
C37         C258   1.366       .  A
C37          H40   1.078       .  S
C38         C261   1.361       .  A
C38          H41   1.074       .  S
C39         C260   1.361       .  A
C39          C74   1.461       .  S
N42          C46   1.369       .  A
N42          C43   1.355       .  A
N42         N132   1.423       .  S
C43         C266   1.367       .  A
C43          C73   1.480       .  S
C44          C45   1.375       .  A
C44         C265   1.367       .  A
C44          H47   1.080   1_556  S
C45         C268   1.385       .  A
C45          H48   1.078       .  S
C46         C267   1.385       .  A
C46          C61   1.505       .  S
O49         V945   1.878       .  S
O49         C281   1.259       .  A
O50          V57   1.907       .  S
O50          C60   1.263       .  A
O51          V57   1.929       .  S
O51          C61   1.273       .  A
O52         V945   1.919       .  S
O52         C284   1.273       .  A
O53         V946   1.889   1_554  S
O53          C62   1.256   1_655  A
O54          V58   1.906       .  S
O54         C283   1.265       .  A
O55          V58   1.930       .  S
O55         C282   1.276       .  A
O56         V946   1.937   1_554  S
O56          C59   1.273   1_655  A
V57         O937   1.878       .  S
V57         O940   1.919       .  S
V57         V280   2.084       .  T
V58         O941   1.889   1_556  S
V58         O944   1.937   1_556  S
V58         V279   2.084       .  T
C59          C78   1.480       .  S
C59         O271   1.259   1_554  A
C60         O277   1.276       .  A
C61         O276   1.265       .  A
C62         O274   1.273   1_554  A
O63          V71   1.923       .  S
O63         C295   1.275   1_554  A
O64          V71   1.907       .  S
O64          C74   1.266       .  A
O65          V71   1.871       .  S
O65         C297   1.258   1_554  A
O66          V71   1.874       .  S
O66          C76   1.252       .  A
O67          V72   1.907       .  S
O67         C298   1.272       .  A
O68          V72   1.909       .  S
O68          C75   1.265       .  A
O69          V72   1.889       .  S
O69         C296   1.260       .  A
O70          V72   1.898       .  S
O70          C73   1.258       .  A
V71         V294   2.086   1_554  T
V72         V293   2.086       .  T
C73         O285   1.275       .  A
C74         O291   1.260       .  A
C75          C88   1.452       .  S
C75         O287   1.258       .  A
C76          C92   1.451       .  S
C76         O289   1.272       .  A
N77          C81   1.360       .  A
N77          C78   1.357       .  A
C78         C301   1.374       .  A
C79          C80   1.357       .  A
C79         C300   1.374       .  A
C79          H82   1.077       .  S
C80         C303   1.371       .  A
C80          H83   1.083       .  S
C81         C302   1.371       .  A
C81         C109   1.464       .  S
N84          C88   1.356       .  A
N84          C85   1.356       .  A
N84         C116   1.432       .  S
C85         C308   1.376       .  A
C85         C111   1.454       .  S
C86          C87   1.350       .  A
C86         C307   1.376       .  A
C86          H89   1.082       .  S
C87         C310   1.383       .  A
C87          H90   1.083       .  S
C88         C309   1.383       .  A
N91          C95   1.359       .  A
N91          C92   1.355       .  A
C92         C315   1.379       .  A
C93          C94   1.355       .  A
C93         C314   1.379       .  A
C93          H96   1.083       .  S
C94         C317   1.380       .  A
C94          H97   1.083       .  S
C95         C316   1.380       .  A
C95         C110   1.462       .  S
O98         V550   1.930       .  S
O98         C330   1.279   1_554  A
O99         V106   1.921       .  S
O99         C109   1.270       .  A
O100        V106   1.872       .  S
O100        C110   1.250       .  A
O101        V550   1.870       .  S
O101        C333   1.256   1_554  A
O102        V551   1.914   1_545  S
O102        C111   1.267       .  A
O103        V107   1.926       .  S
O103        C332   1.278       .  A
O104        V107   1.877       .  S
O104        C331   1.258       .  A
O105        V551   1.884   1_545  S
O105        C108   1.253       .  A
V106        O542   1.930       .  S
V106        O545   1.870       .  S
V106        V329   2.080   1_554  T
V107        O546   1.914       .  S
V107        O549   1.884       .  S
V107        V328   2.080       .  T
C108        O320   1.279       .  A
C109        O326   1.258       .  A
C110        O325   1.278       .  A
C111        O323   1.256       .  A
N112        C116   1.366       .  A
N112        C113   1.369       .  A
N112        N153   1.425       .  S
C113        C114   1.379       .  A
C113        C130   1.488       .  S
C114        C115   1.370       .  A
C114        H117   1.067       .  S
C115        C116   1.374       .  A
C115        H118   1.082       .  S
N119        C123   1.368       .  A
N119        C120   1.383       .  A
C120        C121   1.383       .  A
C120        C126   1.502       .  S
C121        C122   1.365       .  A
C121        H124   1.075       .  S
C122        C123   1.367       .  A
C122        H125   1.081       .  S
C123        N146   1.426       .  S
C126        N131   1.364       .  A
C126        N571   1.372   1_545  A
N127        C128   1.372       .  A
N127        C570   1.372       .  A
C128        N129   1.365       .  A
C128        C133   1.509       .  S
N129       C1462   1.371       .  A
C130       N1461   1.371   1_545  A
C130       N1019   1.368       .  A
N131       C1018   1.368       .  A
N132        C136   1.359       .  A
N132        C133   1.381       .  A
C133        C134   1.381       .  A
C134        C135   1.370       .  A
C134        H137   1.073       .  S
C135        C136   1.368       .  A
C135        H138   1.081       .  S
C136        N188   1.426       .  S
N139        C143   1.369   1_455  A
N139        C140   1.355       .  A
C140        C141   1.367   1_455  A
C140        C177   1.480       .  S
C141        C142   1.375       .  A
C141        H144   1.080       .  S
C142        C143   1.385       .  A
C142        H145   1.078       .  S
C143        C208   1.505       .  S
N146        C150   1.349       .  A
N146        C147   1.348       .  A
C147        C148   1.366       .  A
C147        C207   1.470       .  S
C148        C149   1.368       .  A
C148        H151   1.078       .  S
C149        C150   1.361       .  A
C149        H152   1.073       .  S
C150        C178   1.461       .  S
N153        C157   1.359       .  A
N153        C154   1.355       .  A
C154        C155   1.379       .  A
C154        C179   1.451       .  S
C155        C156   1.355       .  A
C155        H158   1.083   1_545  S
C156        C157   1.380       .  A
C156        H159   1.084       .  S
C157        C219   1.462       .  S
N160        C164   1.357       .  A
N160        C161   1.356       .  A
C161        C162   1.376       .  A
C161        C220   1.454       .  S
C162        C163   1.350       .  A
C162        H165   1.082       .  S
C163        C164   1.382       .  A
C163        H166   1.083       .  S
C164        C180   1.452       .  S
O167        V175   1.923       .  S
O167        C177   1.275       .  A
O168        V619   1.907       .  S
O168        C178   1.266   1_565  A
O169        V619   1.874       .  S
O169        C179   1.252   1_565  A
O170        V175   1.871       .  S
O170        C180   1.258       .  A
O171        V176   1.909       .  S
O171        C180   1.265       .  A
O172        V620   1.908   1_545  S
O172        C179   1.272       .  A
O173        V620   1.888   1_545  S
O173        C178   1.260       .  A
O174        V176   1.898       .  S
O174        C177   1.258       .  A
V175        O612   1.907       .  S
V175        O613   1.874       .  S
V175        V176   2.086       .  T
V176        O616   1.908       .  S
V176        O617   1.888       .  S
N181        C185   1.367   1_455  A
N181        C182   1.357       .  A
C182        C183   1.367   1_455  A
C182        C222   1.474       .  S
C183        C184   1.371       .  A
C183        H186   1.080       .  S
C184        C185   1.385       .  A
C184        H187   1.079       .  S
C185        C206   1.510       .  S
N188        C192   1.360       .  A
N188        C189   1.357       .  A
C189        C190   1.375       .  A
C189        C205   1.480       .  S
C190        C191   1.357       .  A
C190        H193   1.077       .  S
C191        C192   1.371       .  A
C191        H194   1.083       .  S
C192        C221   1.464       .  S
O195        V203   1.878       .  S
O195        C205   1.259       .  A
O196       V1091   1.907       .  S
O196        C206   1.263       .  A
O197        V203   1.919       .  S
O197        C207   1.273       .  A
O198       V1091   1.929       .  S
O198        C208   1.273       .  A
O199       V1092   1.906   1_455  S
O199        C208   1.265   1_455  A
O200        V204   1.889       .  S
O200        C207   1.256       .  A
O201       V1092   1.930   1_455  S
O201        C206   1.276   1_455  A
O202        V204   1.937       .  S
O202        C205   1.273       .  A
V203       O1084   1.907       .  S
V203       O1086   1.929       .  S
V203        V204   2.084       .  T
V204       O1087   1.906       .  S
V204       O1089   1.930       .  S
O209        V217   1.926       .  S
O209        C219   1.278       .  A
O210        V217   1.914       .  S
O210        C220   1.267       .  A
O211        V217   1.877       .  S
O211        C221   1.258       .  A
O212        V217   1.884       .  S
O212        C222   1.253       .  A
O213        V218   1.930       .  S
O213        C222   1.279       .  A
O214        V218   1.921       .  S
O214        C221   1.270       .  A
O215        V218   1.870       .  S
O215        C220   1.256       .  A
O216        V218   1.872       .  S
O216        C219   1.250       .  A
V217        V218   2.079       .  T
N223        C227   1.366       .  A
N223        C224   1.369       .  A
N223        N313   1.425       .  S
C224        C225   1.379       .  A
C224        C248   1.488       .  S
C225        C226   1.370       .  A
C225        H228   1.066       .  S
C226        C227   1.374       .  A
C226        H229   1.082       .  S
C227        N382   1.432       .  S
N230        C234   1.368       .  A
N230        C231   1.383       .  A
N230        N403   1.434       .  S
C231        C232   1.383       .  A
C231       C1132   1.502   1_455  S
C232        C233   1.365       .  A
C232        H235   1.075   1_455  S
C233        C234   1.367       .  A
C233        H236   1.081       .  S
C234        N257   1.426       .  S
N237        C241   1.359       .  A
N237        C238   1.382       .  A
N237        N361   1.423       .  S
C238        C239   1.381       .  A
C238       C1134   1.509   1_455  S
C239        C240   1.369       .  A
C239        H242   1.073   1_455  S
C240        C241   1.367       .  A
C240        H243   1.081       .  S
C241        N299   1.426       .  S
C244       N1133   1.372       .  A
C244        N249   1.364       .  A
C244       C1119   1.502       .  S
N245       C1132   1.372   1_455  A
N245       C1578   1.372   1_445  A
C246       N1577   1.372       .  A
C246        N247   1.365       .  A
C246       C1126   1.509       .  S
N247        C248   1.371       .  A
C248        N693   1.368       .  A
N249        C692   1.368   1_545  A
N250        C254   1.367       .  A
N250        C251   1.357       .  A
N250        N341   1.434       .  S
C251        C330   1.475       .  S
C252        C253   1.371       .  A
C252        H255   1.080       .  S
C253        H256   1.079       .  S
C254        C282   1.510       .  S
N257        C261   1.349       .  A
N257        C258   1.348       .  A
C258        C284   1.470       .  S
C259        C260   1.368       .  A
C259        H262   1.078       .  S
C260        H263   1.074       .  S
C261        C296   1.461       .  S
N264        C268   1.369       .  A
N264        C265   1.355       .  A
N264        N354   1.423       .  S
C265        C295   1.480       .  S
C266        C267   1.375       .  A
C266        H269   1.080       .  S
C267        H270   1.078       .  S
C268        C283   1.505       .  S
O271       V1167   1.878       .  S
O272        V279   1.907       .  S
O272        C282   1.263       .  A
O273        V279   1.929       .  S
O273        C283   1.273       .  A
O274       V1167   1.919       .  S
O275       V1168   1.889       .  S
O275        C284   1.256   1_655  A
O276        V280   1.906       .  S
O277        V280   1.930       .  S
O278       V1168   1.937       .  S
O278        C281   1.273   1_655  A
V279       O1159   1.878       .  S
V279       O1162   1.919       .  S
V280       O1163   1.889       .  S
V280       O1166   1.937       .  S
C281        C300   1.480       .  S
O285        V293   1.923       .  S
O286        V293   1.907       .  S
O286        C296   1.266       .  A
O287        V293   1.871       .  S
O288        V293   1.874       .  S
O288        C298   1.252       .  A
O289        V294   1.907   1_554  S
O290        V294   1.909       .  S
O290        C297   1.265       .  A
O291        V294   1.889   1_554  S
O292        V294   1.898       .  S
O292        C295   1.258       .  A
C297        C310   1.452       .  S
C298        C314   1.451       .  S
N299        C303   1.360       .  A
N299        C300   1.357       .  A
C301        C302   1.357       .  A
C301        H304   1.077       .  S
C302        H305   1.083       .  S
C303        C331   1.464       .  S
N306        C310   1.356       .  A
N306        C307   1.356       .  A
N306        C338   1.432       .  S
C307        C333   1.454       .  S
C308        C309   1.350       .  A
C308        H311   1.082       .  S
C309        H312   1.083       .  S
N313        C317   1.359       .  A
N313        C314   1.355       .  A
C315        C316   1.355       .  A
C315        H318   1.083       .  S
C316        H319   1.083       .  S
C317        C332   1.462       .  S
O320        V772   1.930       .  S
O321        V328   1.921       .  S
O321        C331   1.270       .  A
O322        V328   1.872       .  S
O322        C332   1.250       .  A
O323        V772   1.870       .  S
O324        V773   1.914   1_545  S
O324        C333   1.267       .  A
O325        V329   1.926   1_554  S
O326        V329   1.877   1_554  S
O327        V773   1.884   1_545  S
O327        C330   1.253       .  A
V328        O764   1.930       .  S
V328        O767   1.870       .  S
V329        O768   1.914       .  S
V329        O771   1.884       .  S
N334        C338   1.366       .  A
N334        C335   1.369       .  A
N334        N375   1.425       .  S
C335        C336   1.379       .  A
C335        C352   1.488       .  S
C336        C337   1.370       .  A
C336        H339   1.067   1_556  S
C337        C338   1.374       .  A
C337        H340   1.082   1_556  S
N341        C345   1.368       .  A
N341        C342   1.383       .  A
C342        C343   1.383       .  A
C342        C348   1.502       .  S
C343        C344   1.365       .  A
C343        H346   1.075       .  S
C344        C345   1.367       .  A
C344        H347   1.081       .  S
C345        N368   1.426       .  S
C348        N793   1.372   1_545  A
C348        N353   1.364       .  A
N349        C792   1.372       .  A
N349        C350   1.372       .  A
C350        N351   1.365       .  A
C350        C355   1.509       .  S
N351       C1684   1.371       .  A
C352       N1683   1.371   1_545  A
C352       N1241   1.368       .  A
N353       C1240   1.368       .  A
N354        C358   1.359       .  A
N354        C355   1.381       .  A
C355        C356   1.381       .  A
C356        C357   1.370       .  A
C356        H359   1.073       .  S
C357        C358   1.368       .  A
C357        H360   1.081       .  S
C358        N410   1.426       .  S
N361        C365   1.369   1_455  A
N361        C362   1.355       .  A
C362        C363   1.367   1_455  A
C362        C399   1.480       .  S
C363        C364   1.375       .  A
C363        H366   1.080       .  S
C364        C365   1.385       .  A
C364        H367   1.078       .  S
C365        C430   1.505       .  S
N368        C372   1.349       .  A
N368        C369   1.348       .  A
C369        C370   1.366       .  A
C369        C429   1.470       .  S
C370        C371   1.368       .  A
C370        H373   1.078       .  S
C371        C372   1.361       .  A
C371        H374   1.073       .  S
C372        C400   1.461       .  S
N375        C379   1.359       .  A
N375        C376   1.355       .  A
C376        C377   1.379       .  A
C376        C401   1.451       .  S
C377        C378   1.355       .  A
C377        H380   1.083   1_545  S
C378        C379   1.380       .  A
C378        H381   1.084       .  S
C379        C441   1.462       .  S
N382        C386   1.357       .  A
N382        C383   1.356       .  A
C383        C384   1.376       .  A
C383        C442   1.454       .  S
C384        C385   1.350       .  A
C384        H387   1.082       .  S
C385        C386   1.382       .  A
C385        H388   1.083       .  S
C386        C402   1.452       .  S
O389        V397   1.923       .  S
O389        C399   1.275       .  A
O390        V841   1.907       .  S
O390        C400   1.266   1_565  A
O391        V841   1.874       .  S
O391        C401   1.252   1_565  A
O392        V397   1.871       .  S
O392        C402   1.258       .  A
O393        V398   1.909       .  S
O393        C402   1.265       .  A
O394        V842   1.908   1_545  S
O394        C401   1.272       .  A
O395        V842   1.888   1_545  S
O395        C400   1.260       .  A
O396        V398   1.898       .  S
O396        C399   1.258       .  A
V397        O834   1.907       .  S
V397        O835   1.874       .  S
V397        V398   2.086       .  T
V398        O838   1.908       .  S
V398        O839   1.888       .  S
N403        C407   1.367   1_455  A
N403        C404   1.357       .  A
C404        C405   1.367   1_455  A
C404        C444   1.474       .  S
C405        C406   1.371       .  A
C405        H408   1.080       .  S
C406        C407   1.385       .  A
C406        H409   1.079       .  S
C407        C428   1.510       .  S
N410        C414   1.360       .  A
N410        C411   1.357       .  A
C411        C412   1.375       .  A
C411        C427   1.480       .  S
C412        C413   1.357       .  A
C412        H415   1.077       .  S
C413        C414   1.371       .  A
C413        H416   1.083       .  S
C414        C443   1.464       .  S
O417        V425   1.878       .  S
O417        C427   1.259       .  A
O418       V1313   1.907       .  S
O418        C428   1.263       .  A
O419        V425   1.919       .  S
O419        C429   1.273       .  A
O420       V1313   1.929       .  S
O420        C430   1.273       .  A
O421       V1314   1.906   1_455  S
O421        C430   1.265   1_455  A
O422        V426   1.889       .  S
O422        C429   1.256       .  A
O423       V1314   1.930   1_455  S
O423        C428   1.276   1_455  A
O424        V426   1.937       .  S
O424        C427   1.273       .  A
V425       O1306   1.907       .  S
V425       O1308   1.929       .  S
V425        V426   2.084       .  T
V426       O1309   1.906       .  S
V426       O1311   1.930       .  S
O431        V439   1.926       .  S
O431        C441   1.278       .  A
O432        V439   1.914       .  S
O432        C442   1.267       .  A
O433        V439   1.877       .  S
O433        C443   1.258       .  A
O434        V439   1.884       .  S
O434        C444   1.253       .  A
O435        V440   1.930       .  S
O435        C444   1.279       .  A
O436        V440   1.921       .  S
O436        C443   1.270       .  A
O437        V440   1.870       .  S
O437        C442   1.256       .  A
O438        V440   1.872       .  S
O438        C441   1.250       .  A
V439        V440   2.079       .  T
N445        C449   1.366       .  A
N445        C446   1.369       .  A
N445        N535   1.425       .  S
C446        C447   1.379       .  A
C446        C470   1.488       .  S
C447        C448   1.370       .  A
C447        H450   1.067       .  S
C448        C449   1.374       .  A
C448        H451   1.082       .  S
C449        N604   1.432       .  S
N452        C456   1.368       .  A
N452        C453   1.383       .  A
N452        N625   1.434       .  S
C453        C454   1.383       .  A
C453       C1354   1.502   1_455  S
C454        C455   1.365       .  A
C454        H457   1.075   1_455  S
C455        C456   1.367       .  A
C455        H458   1.081   1_554  S
C456        N479   1.426       .  S
N459        C463   1.359       .  A
N459        C460   1.382       .  A
N459        N583   1.423       .  S
C460        C461   1.381       .  A
C460       C1356   1.509   1_455  S
C461        C462   1.369       .  A
C461        H464   1.073   1_455  S
C462        C463   1.367       .  A
C462        H465   1.081   1_554  S
C463        N521   1.426       .  S
C466       N1355   1.372       .  A
C466        N471   1.364       .  A
C466       C1341   1.502       .  S
N467       C1354   1.372   1_455  A
N467        C912   1.372   1_455  A
C468        N911   1.372   1_565  A
C468        N469   1.365       .  A
C468       C1348   1.509       .  S
N469        C470   1.371       .  A
N472        C476   1.367       .  A
N472        C473   1.357       .  A
N472        N563   1.434       .  S
C473        C696   1.367       .  A
C473        C552   1.475       .  S
C474        C695   1.367       .  A
C474        C475   1.371       .  A
C474        H477   1.080   1_556  S
C475        C698   1.385       .  A
C475        H478   1.079       .  S
C476        C697   1.385       .  A
C476        C504   1.510       .  S
N479        C483   1.349       .  A
N479        C480   1.348       .  A
C480        C703   1.366       .  A
C480        C506   1.470       .  S
C481        C702   1.366       .  A
C481        C482   1.368       .  A
C481        H484   1.078       .  S
C482        C705   1.361       .  A
C482        H485   1.074       .  S
C483        C704   1.361       .  A
C483        C518   1.461       .  S
N486        C490   1.369       .  A
N486        C487   1.355       .  A
N486        N576   1.423       .  S
C487        C710   1.367       .  A
C487        C517   1.480       .  S
C488        C709   1.367       .  A
C488        C489   1.375       .  A
C488        H491   1.080   1_556  S
C489        C712   1.385       .  A
C489        H492   1.078       .  S
C490        C711   1.385       .  A
C490        C505   1.505       .  S
O493       V1389   1.878       .  S
O493        C725   1.259       .  A
O494        V501   1.907       .  S
O494        C504   1.263       .  A
O495        V501   1.929       .  S
O495        C505   1.273       .  A
O496       V1389   1.919       .  S
O496        C728   1.273       .  A
O497       V1390   1.889   1_554  S
O497        C506   1.256   1_655  A
O498        V502   1.906       .  S
O498        C727   1.265       .  A
O499        V502   1.930       .  S
O499        C726   1.276       .  A
O500       V1390   1.937   1_554  S
O500        C503   1.273   1_655  A
V501       O1381   1.878       .  S
V501       O1384   1.919       .  S
V501        V724   2.084       .  T
V502       O1385   1.889   1_556  S
V502       O1388   1.937   1_556  S
V502        V723   2.084       .  T
C503        C522   1.480       .  S
C503        O715   1.259   1_554  A
C504        O721   1.276       .  A
C505        O720   1.265       .  A
C506        O718   1.273   1_554  A
O507        V515   1.923       .  S
O507        C739   1.275   1_554  A
O508        V515   1.907       .  S
O508        C518   1.266       .  A
O509        V515   1.871       .  S
O509        C741   1.258   1_554  A
O510        V515   1.874       .  S
O510        C520   1.252       .  A
O511        V516   1.907       .  S
O511        C742   1.272       .  A
O512        V516   1.909       .  S
O512        C519   1.265       .  A
O513        V516   1.889       .  S
O513        C740   1.260       .  A
O514        V516   1.898       .  S
O514        C517   1.258       .  A
V515        V738   2.086   1_554  T
V516        V737   2.086       .  T
C517        O729   1.275       .  A
C518        O735   1.260       .  A
C519        C532   1.452       .  S
C519        O731   1.258       .  A
C520        C536   1.451       .  S
C520        O733   1.272       .  A
N521        C525   1.360       .  A
N521        C522   1.357       .  A
C522        C745   1.374       .  A
C523        C744   1.374       .  A
C523        C524   1.357       .  A
C523        H526   1.077       .  S
C524        C747   1.371       .  A
C524        H527   1.083       .  S
C525        C746   1.371       .  A
C525        C553   1.464       .  S
N528        C532   1.356       .  A
N528        C529   1.356       .  A
N528        C560   1.432       .  S
C529        C752   1.376       .  A
C529        C555   1.454       .  S
C530        C751   1.376       .  A
C530        C531   1.350       .  A
C530        H533   1.082       .  S
C531        C754   1.383       .  A
C531        H534   1.083       .  S
C532        C753   1.383       .  A
N535        C539   1.359       .  A
N535        C536   1.355       .  A
C536        C759   1.379       .  A
C537        C758   1.379       .  A
C537        C538   1.355       .  A
C537        H540   1.083       .  S
C538        C761   1.380       .  A
C538        H541   1.083       .  S
C539        C760   1.380       .  A
C539        C554   1.462       .  S
O542        C774   1.279   1_554  A
O543        V550   1.921   1_565  S
O543        C553   1.270       .  A
O544        V550   1.872       .  S
O544        C554   1.250   1_545  A
O545        C777   1.256   1_554  A
O546        C555   1.267       .  A
O547        V551   1.926       .  S
O547        C776   1.278       .  A
O548        V551   1.877       .  S
O548        C775   1.258       .  A
O549        C552   1.253       .  A
V550        V773   2.080   1_544  T
V551        V772   2.080   1_565  T
C552        O764   1.279       .  A
C553        O770   1.258       .  A
C554        O769   1.278       .  A
C555        O767   1.256       .  A
N556        C560   1.366       .  A
N556        C557   1.369       .  A
N556        N597   1.425       .  S
C557        C558   1.379       .  A
C557        C574   1.488       .  S
C558        C559   1.370       .  A
C558        H561   1.067       .  S
C559        C560   1.374       .  A
C559        H562   1.082       .  S
N563        C567   1.368       .  A
N563        C564   1.383       .  A
C564        C565   1.383       .  A
C564        C570   1.502       .  S
C565        C566   1.365       .  A
C565        H568   1.075       .  S
C566        C567   1.367       .  A
C566        H569   1.081       .  S
C567        N590   1.426       .  S
C570        N575   1.364       .  A
N571        C572   1.372       .  A
C572        N573   1.365       .  A
C572        C577   1.509       .  S
N573       C1018   1.371   1_565  A
C574       N1017   1.371       .  A
C574       N1463   1.368       .  A
N575       C1462   1.368       .  A
N576        C580   1.359       .  A
N576        C577   1.381       .  A
C577        C578   1.381       .  A
C578        C579   1.370       .  A
C578        H581   1.073       .  S
C579        C580   1.368       .  A
C579        H582   1.081       .  S
C580        N632   1.426       .  S
N583        C587   1.369   1_455  A
N583        C584   1.355       .  A
C584        C585   1.367   1_455  A
C584        C621   1.480       .  S
C585        C586   1.375       .  A
C585        H588   1.080       .  S
C586        C587   1.385       .  A
C586        H589   1.078       .  S
C587        C652   1.505       .  S
N590        C594   1.349       .  A
N590        C591   1.348       .  A
C591        C592   1.366       .  A
C591        C651   1.470       .  S
C592        C593   1.368       .  A
C592        H595   1.078       .  S
C593        C594   1.361       .  A
C593        H596   1.073       .  S
C594        C622   1.461       .  S
N597        C601   1.359       .  A
N597        C598   1.355       .  A
C598        C599   1.379       .  A
C598        C623   1.451       .  S
C599        C600   1.355       .  A
C599        H602   1.083       .  S
C600        C601   1.380       .  A
C600        H603   1.084       .  S
C601        C663   1.462       .  S
N604        C608   1.357       .  A
N604        C605   1.356       .  A
C605        C606   1.376       .  A
C605        C664   1.454       .  S
C606        C607   1.350       .  A
C606        H609   1.082       .  S
C607        C608   1.382       .  A
C607        H610   1.083       .  S
C608        C624   1.452       .  S
O611        V619   1.923       .  S
O611        C621   1.275       .  A
O612        C622   1.266       .  A
O613        C623   1.252       .  A
O614        V619   1.871       .  S
O614        C624   1.258       .  A
O615        V620   1.909       .  S
O615        C624   1.265       .  A
O616        C623   1.272       .  A
O617        C622   1.260       .  A
O618        V620   1.898       .  S
O618        C621   1.258       .  A
V619        V620   2.086       .  T
N625        C629   1.367   1_455  A
N625        C626   1.357       .  A
C626        C627   1.367   1_455  A
C626        C666   1.474       .  S
C627        C628   1.371       .  A
C627        H630   1.080       .  S
C628        C629   1.385       .  A
C628        H631   1.079       .  S
C629        C650   1.510       .  S
N632        C636   1.360       .  A
N632        C633   1.357       .  A
C633        C634   1.375       .  A
C633        C649   1.480       .  S
C634        C635   1.357       .  A
C634        H637   1.077       .  S
C635        C636   1.371       .  A
C635        H638   1.083       .  S
C636        C665   1.464       .  S
O639        V647   1.878       .  S
O639        C649   1.259       .  A
O640       V1535   1.907       .  S
O640        C650   1.263       .  A
O641        V647   1.919       .  S
O641        C651   1.273       .  A
O642       V1535   1.929       .  S
O642        C652   1.273       .  A
O643       V1536   1.906   1_455  S
O643        C652   1.265   1_455  A
O644        V648   1.889       .  S
O644        C651   1.256       .  A
O645       V1536   1.930   1_455  S
O645        C650   1.276   1_455  A
O646        V648   1.937       .  S
O646        C649   1.273       .  A
V647       O1528   1.907       .  S
V647       O1530   1.929       .  S
V647        V648   2.084       .  T
V648       O1531   1.906       .  S
V648       O1533   1.930       .  S
O653        V661   1.926       .  S
O653        C663   1.278       .  A
O654        V661   1.914       .  S
O654        C664   1.267       .  A
O655        V661   1.877       .  S
O655        C665   1.258       .  A
O656        V661   1.884       .  S
O656        C666   1.253       .  A
O657        V662   1.930       .  S
O657        C666   1.279       .  A
O658        V662   1.921       .  S
O658        C665   1.270       .  A
O659        V662   1.870       .  S
O659        C664   1.256       .  A
O660        V662   1.872       .  S
O660        C663   1.250       .  A
V661        V662   2.079       .  T
N667        C671   1.366       .  A
N667        C668   1.369       .  A
N667        N757   1.425       .  S
C668        C669   1.379       .  A
C668        C692   1.488       .  S
C669        C670   1.370       .  A
C669        H672   1.066       .  S
C670        C671   1.374       .  A
C670        H673   1.082       .  S
C671        N826   1.432       .  S
N674        C678   1.368       .  A
N674        C675   1.383       .  A
N674        N847   1.434       .  S
C675        C676   1.383       .  A
C675       C1576   1.502   1_455  S
C676        C677   1.365       .  A
C676        H679   1.075   1_455  S
C677        C678   1.367       .  A
C677        H680   1.081       .  S
C678        N701   1.426       .  S
N681        C685   1.359       .  A
N681        C682   1.382       .  A
N681        N805   1.423       .  S
C682        C683   1.381       .  A
C682       C1578   1.509   1_455  S
C683        C684   1.369       .  A
C683        H686   1.073   1_455  S
C684        C685   1.367       .  A
C684        H687   1.081       .  S
C685        N743   1.426       .  S
C688       N1577   1.372       .  A
C688        N693   1.364       .  A
C688       C1563   1.502       .  S
N689       C1576   1.372   1_455  A
N689       C1134   1.372   1_455  A
C690       N1133   1.372   1_565  A
C690        N691   1.365       .  A
C690       C1570   1.509       .  S
N691        C692   1.371       .  A
N694        C698   1.367       .  A
N694        C695   1.357       .  A
N694        N785   1.434       .  S
C695        C774   1.475       .  S
C696        C697   1.371       .  A
C696        H699   1.080       .  S
C697        H700   1.079       .  S
C698        C726   1.510       .  S
N701        C705   1.349       .  A
N701        C702   1.348       .  A
C702        C728   1.470       .  S
C703        C704   1.368       .  A
C703        H706   1.078       .  S
C704        H707   1.074       .  S
C705        C740   1.461       .  S
N708        C712   1.369       .  A
N708        C709   1.355       .  A
N708        N798   1.423       .  S
C709        C739   1.480       .  S
C710        C711   1.375       .  A
C710        H713   1.080       .  S
C711        H714   1.078       .  S
C712        C727   1.505       .  S
O715       V1611   1.878       .  S
O716        V723   1.907       .  S
O716        C726   1.263       .  A
O717        V723   1.929       .  S
O717        C727   1.273       .  A
O718       V1611   1.919       .  S
O719       V1612   1.889       .  S
O719        C728   1.256   1_655  A
O720        V724   1.906       .  S
O721        V724   1.930       .  S
O722       V1612   1.937       .  S
O722        C725   1.273   1_655  A
V723       O1603   1.878       .  S
V723       O1606   1.919       .  S
V724       O1607   1.889       .  S
V724       O1610   1.937       .  S
C725        C744   1.480       .  S
O729        V737   1.923       .  S
O730        V737   1.907       .  S
O730        C740   1.266       .  A
O731        V737   1.871       .  S
O732        V737   1.874       .  S
O732        C742   1.252       .  A
O733        V738   1.907   1_554  S
O734        V738   1.909       .  S
O734        C741   1.265       .  A
O735        V738   1.889   1_554  S
O736        V738   1.898       .  S
O736        C739   1.258       .  A
C741        C754   1.452       .  S
C742        C758   1.451       .  S
N743        C747   1.360       .  A
N743        C744   1.357       .  A
C745        C746   1.357       .  A
C745        H748   1.077       .  S
C746        H749   1.083       .  S
C747        C775   1.464       .  S
N750        C754   1.356       .  A
N750        C751   1.356       .  A
N750        C782   1.432       .  S
C751        C777   1.454       .  S
C752        C753   1.350       .  A
C752        H755   1.082       .  S
C753        H756   1.083       .  S
N757        C761   1.359       .  A
N757        C758   1.355       .  A
C759        C760   1.355       .  A
C759        H762   1.083       .  S
C760        H763   1.083       .  S
C761        C776   1.462       .  S
O765        V772   1.921   1_565  S
O765        C775   1.270       .  A
O766        V772   1.872       .  S
O766        C776   1.250   1_545  A
O768        C777   1.267       .  A
O769        V773   1.926   1_554  S
O770        V773   1.877   1_554  S
O771        C774   1.253       .  A
N778        C782   1.366       .  A
N778        C779   1.369       .  A
N778        N819   1.425       .  S
C779        C780   1.379       .  A
C779        C796   1.488       .  S
C780        C781   1.370       .  A
C780        H783   1.067   1_556  S
C781        C782   1.374       .  A
C781        H784   1.082   1_556  S
N785        C789   1.368       .  A
N785        C786   1.383       .  A
C786        C787   1.383       .  A
C786        C792   1.502       .  S
C787        C788   1.365       .  A
C787        H790   1.075       .  S
C788        C789   1.367       .  A
C788        H791   1.081       .  S
C789        N812   1.426       .  S
C792        N797   1.364       .  A
N793        C794   1.372       .  A
C794        N795   1.365       .  A
C794        C799   1.509       .  S
N795       C1240   1.371   1_565  A
C796       N1239   1.371       .  A
C796       N1685   1.368       .  A
N797       C1684   1.368       .  A
N798        C802   1.359       .  A
N798        C799   1.381       .  A
C799        C800   1.381       .  A
C800        C801   1.370       .  A
C800        H803   1.073       .  S
C801        C802   1.368       .  A
C801        H804   1.081       .  S
C802        N854   1.426       .  S
N805        C809   1.369   1_455  A
N805        C806   1.355       .  A
C806        C807   1.367   1_455  A
C806        C843   1.480       .  S
C807        C808   1.375       .  A
C807        H810   1.080       .  S
C808        C809   1.385       .  A
C808        H811   1.078       .  S
C809        C874   1.505       .  S
N812        C816   1.349       .  A
N812        C813   1.348       .  A
C813        C814   1.366       .  A
C813        C873   1.470       .  S
C814        C815   1.368       .  A
C814        H817   1.078       .  S
C815        C816   1.361       .  A
C815        H818   1.073       .  S
C816        C844   1.461       .  S
N819        C823   1.359       .  A
N819        C820   1.355       .  A
C820        C821   1.379       .  A
C820        C845   1.451       .  S
C821        C822   1.355       .  A
C821        H824   1.083       .  S
C822        C823   1.380       .  A
C822        H825   1.084       .  S
C823        C885   1.462       .  S
N826        C830   1.357       .  A
N826        C827   1.356       .  A
C827        C828   1.376       .  A
C827        C886   1.454       .  S
C828        C829   1.350       .  A
C828        H831   1.082       .  S
C829        C830   1.382       .  A
C829        H832   1.083       .  S
C830        C846   1.452       .  S
O833        V841   1.923       .  S
O833        C843   1.275       .  A
O834        C844   1.266       .  A
O835        C845   1.252       .  A
O836        V841   1.871       .  S
O836        C846   1.258       .  A
O837        V842   1.909       .  S
O837        C846   1.265       .  A
O838        C845   1.272       .  A
O839        C844   1.260       .  A
O840        V842   1.898       .  S
O840        C843   1.258       .  A
V841        V842   2.086       .  T
N847        C851   1.367   1_455  A
N847        C848   1.357       .  A
C848        C849   1.367   1_455  A
C848        C888   1.474       .  S
C849        C850   1.371       .  A
C849        H852   1.080       .  S
C850        C851   1.385       .  A
C850        H853   1.079       .  S
C851        C872   1.510       .  S
N854        C858   1.360       .  A
N854        C855   1.357       .  A
C855        C856   1.375       .  A
C855        C871   1.480       .  S
C856        C857   1.357       .  A
C856        H859   1.077       .  S
C857        C858   1.371       .  A
C857        H860   1.083       .  S
C858        C887   1.464       .  S
O861        V869   1.878       .  S
O861        C871   1.259       .  A
O862       V1757   1.907       .  S
O862        C872   1.263       .  A
O863        V869   1.919       .  S
O863        C873   1.273       .  A
O864       V1757   1.929       .  S
O864        C874   1.273       .  A
O865       V1758   1.906   1_455  S
O865        C874   1.265   1_455  A
O866        V870   1.889       .  S
O866        C873   1.256       .  A
O867       V1758   1.930   1_455  S
O867        C872   1.276   1_455  A
O868        V870   1.937       .  S
O868        C871   1.273       .  A
V869       O1750   1.907       .  S
V869       O1752   1.929       .  S
V869        V870   2.084       .  T
V870       O1753   1.906       .  S
V870       O1755   1.930       .  S
O875        V883   1.926       .  S
O875        C885   1.278       .  A
O876        V883   1.914       .  S
O876        C886   1.267       .  A
O877        V883   1.877       .  S
O877        C887   1.258       .  A
O878        V883   1.884       .  S
O878        C888   1.253       .  A
O879        V884   1.930       .  S
O879        C888   1.279       .  A
O880        V884   1.921       .  S
O880        C887   1.270       .  A
O881        V884   1.870       .  S
O881        C886   1.256       .  A
O882        V884   1.872       .  S
O882        C885   1.250       .  A
V883        V884   2.079       .  T
N889        C893   1.366       .  A
N889        C890   1.369       .  A
N889        N979   1.425       .  S
C890        C891   1.379       .  A
C890        C914   1.488       .  S
C891        C892   1.370       .  A
C891        H894   1.066       .  S
C892        C893   1.374       .  A
C892        H895   1.082       .  S
C893       N1048   1.432       .  S
N896        C900   1.368       .  A
N896        C897   1.383       .  A
N896       N1069   1.434       .  S
C897        C898   1.383       .  A
C898        C899   1.365       .  A
C898        H901   1.075       .  S
C899        C900   1.367       .  A
C899        H902   1.081   1_554  S
C900        N923   1.426       .  S
N903        C907   1.359       .  A
N903        C904   1.382       .  A
N903       N1027   1.423       .  S
C904        C905   1.381       .  A
C905        C906   1.369       .  A
C905        H908   1.073       .  S
C906        C907   1.367       .  A
C906        H909   1.081   1_554  S
C907        N965   1.426       .  S
C910        N915   1.364       .  A
C912        N913   1.365       .  A
N913        C914   1.371       .  A
C914       N1359   1.368       .  A
N915       C1358   1.368   1_545  A
N916        C920   1.367       .  A
N916        C917   1.357       .  A
N916       N1007   1.434       .  S
C917       C1140   1.367       .  A
C917        C996   1.475       .  S
C918       C1139   1.367       .  A
C918        C919   1.371       .  A
C918        H921   1.080   1_556  S
C919       C1142   1.385       .  A
C919        H922   1.079   1_655  S
C920       C1141   1.385       .  A
C920        C948   1.510       .  S
N923        C927   1.349       .  A
N923        C924   1.348       .  A
C924       C1147   1.366       .  A
C924        C950   1.470       .  S
C925       C1146   1.366       .  A
C925        C926   1.368       .  A
C925        H928   1.078       .  S
C926       C1149   1.361       .  A
C926        H929   1.074       .  S
C927       C1148   1.361       .  A
C927        C962   1.461       .  S
N930        C934   1.369       .  A
N930        C931   1.355       .  A
N930       N1020   1.423       .  S
C931       C1154   1.367       .  A
C931        C961   1.480       .  S
C932       C1153   1.367       .  A
C932        C933   1.375       .  A
C932        H935   1.080   1_556  S
C933       C1156   1.385       .  A
C933        H936   1.078   1_655  S
C934       C1155   1.385       .  A
C934        C949   1.505       .  S
O937       C1169   1.259       .  A
O938        V945   1.907       .  S
O938        C948   1.263   1_455  A
O939        V945   1.929       .  S
O939        C949   1.273   1_455  A
O940       C1172   1.273       .  A
O941        C950   1.256       .  A
O942        V946   1.906       .  S
O942       C1171   1.265       .  A
O943        V946   1.930       .  S
O943       C1170   1.276       .  A
O944        C947   1.273       .  A
V945       V1168   2.084   1_455  T
V946       V1167   2.084   1_655  T
C947        C966   1.480       .  S
C947       O1159   1.259   1_554  A
C948       O1165   1.276       .  A
C949       O1164   1.265       .  A
C950       O1162   1.273   1_554  A
O951        V959   1.923       .  S
O951       C1183   1.275   1_554  A
O952        V959   1.907       .  S
O952        C962   1.266       .  A
O953        V959   1.871       .  S
O953       C1185   1.258   1_554  A
O954        V959   1.874       .  S
O954        C964   1.252       .  A
O955        V960   1.907       .  S
O955       C1186   1.272       .  A
O956        V960   1.909       .  S
O956        C963   1.265       .  A
O957        V960   1.889       .  S
O957       C1184   1.260       .  A
O958        V960   1.898       .  S
O958        C961   1.258       .  A
V959       V1182   2.086   1_554  T
V960       V1181   2.086       .  T
C961       O1173   1.275       .  A
C962       O1179   1.260       .  A
C963        C976   1.452       .  S
C963       O1175   1.258       .  A
C964        C980   1.451       .  S
C964       O1177   1.272       .  A
N965        C969   1.360       .  A
N965        C966   1.357       .  A
C966       C1189   1.374       .  A
C967       C1188   1.374       .  A
C967        C968   1.357       .  A
C967        H970   1.077       .  S
C968       C1191   1.371       .  A
C968        H971   1.083       .  S
C969       C1190   1.371       .  A
C969        C997   1.464       .  S
N972        C976   1.356       .  A
N972        C973   1.356       .  A
N972       C1004   1.432       .  S
C973       C1196   1.376       .  A
C973        C999   1.454       .  S
C974       C1195   1.376       .  A
C974        C975   1.350       .  A
C974        H977   1.082       .  S
C975       C1198   1.383       .  A
C975        H978   1.083       .  S
C976       C1197   1.383       .  A
N979        C983   1.359       .  A
N979        C980   1.355       .  A
C980       C1203   1.379       .  A
C981       C1202   1.379       .  A
C981        C982   1.355       .  A
C981        H984   1.083       .  S
C982       C1205   1.380       .  A
C982        H985   1.083       .  S
C983       C1204   1.380       .  A
C983        C998   1.462       .  S
O986       V1438   1.930       .  S
O986       C1218   1.279   1_554  A
O987        V994   1.921       .  S
O987        C997   1.270       .  A
O988        V994   1.872       .  S
O988        C998   1.250       .  A
O989       V1438   1.870       .  S
O989       C1221   1.256   1_554  A
O990       V1439   1.914   1_545  S
O990        C999   1.267       .  A
O991        V995   1.926       .  S
O991       C1220   1.278       .  A
O992        V995   1.877       .  S
O992       C1219   1.258       .  A
O993       V1439   1.884   1_545  S
O993        C996   1.253       .  A
V994       O1430   1.930       .  S
V994       O1433   1.870       .  S
V994       V1217   2.080   1_554  T
V995       O1434   1.914       .  S
V995       O1437   1.884       .  S
V995       V1216   2.080       .  T
C996       O1208   1.279       .  A
C997       O1214   1.258       .  A
C998       O1213   1.278       .  A
C999       O1211   1.256       .  A
N1000      C1004   1.366       .  A
N1000      C1001   1.369       .  A
N1000      N1041   1.425       .  S
C1001      C1002   1.379       .  A
C1001      C1018   1.488       .  S
C1002      C1003   1.370       .  A
C1002      H1005   1.067       .  S
C1003      C1004   1.374       .  A
C1003      H1006   1.082       .  S
N1007      C1011   1.368       .  A
N1007      C1008   1.383       .  A
C1008      C1009   1.383       .  A
C1008      C1014   1.502       .  S
C1009      C1010   1.365       .  A
C1009      H1012   1.075       .  S
C1010      C1011   1.367       .  A
C1010      H1013   1.081       .  S
C1011      N1034   1.426       .  S
C1014      N1459   1.372   1_545  A
C1014      N1019   1.364   1_655  A
N1015      C1458   1.372       .  A
N1015      C1016   1.372       .  A
C1016      N1017   1.365   1_655  A
C1016      C1021   1.509       .  S
N1020      C1024   1.359       .  A
N1020      C1021   1.381       .  A
C1021      C1022   1.381       .  A
C1022      C1023   1.370       .  A
C1022      H1025   1.073       .  S
C1023      C1024   1.368       .  A
C1023      H1026   1.081       .  S
C1024      N1076   1.426       .  S
N1027      C1031   1.369       .  A
N1027      C1028   1.355       .  A
C1028      C1029   1.367       .  A
C1028      C1065   1.480       .  S
C1029      C1030   1.375       .  A
C1029      H1032   1.080       .  S
C1030      C1031   1.385       .  A
C1030      H1033   1.078       .  S
C1031      C1096   1.505       .  S
N1034      C1038   1.349       .  A
N1034      C1035   1.348       .  A
C1035      C1036   1.366       .  A
C1035      C1095   1.470       .  S
C1036      C1037   1.368       .  A
C1036      H1039   1.078       .  S
C1037      C1038   1.361       .  A
C1037      H1040   1.073       .  S
C1038      C1066   1.461       .  S
N1041      C1045   1.359       .  A
N1041      C1042   1.355       .  A
C1042      C1043   1.379       .  A
C1042      C1067   1.451       .  S
C1043      C1044   1.355       .  A
C1043      H1046   1.083   1_545  S
C1044      C1045   1.380       .  A
C1044      H1047   1.084       .  S
C1045      C1107   1.462       .  S
N1048      C1052   1.357       .  A
N1048      C1049   1.356       .  A
C1049      C1050   1.376       .  A
C1049      C1108   1.454       .  S
C1050      C1051   1.350       .  A
C1050      H1053   1.082       .  S
C1051      C1052   1.382       .  A
C1051      H1054   1.083       .  S
C1052      C1068   1.452       .  S
O1055      V1063   1.923       .  S
O1055      C1065   1.275       .  A
O1056      V1507   1.907       .  S
O1056      C1066   1.266   1_565  A
O1057      V1507   1.874       .  S
O1057      C1067   1.252   1_565  A
O1058      V1063   1.871       .  S
O1058      C1068   1.258       .  A
O1059      V1064   1.909       .  S
O1059      C1068   1.265       .  A
O1060      V1508   1.908   1_545  S
O1060      C1067   1.272       .  A
O1061      V1508   1.888   1_545  S
O1061      C1066   1.260       .  A
O1062      V1064   1.898       .  S
O1062      C1065   1.258       .  A
V1063      O1500   1.907       .  S
V1063      O1501   1.874       .  S
V1063      V1064   2.086       .  T
V1064      O1504   1.908       .  S
V1064      O1505   1.888       .  S
N1069      C1073   1.367       .  A
N1069      C1070   1.357       .  A
C1070      C1071   1.367       .  A
C1070      C1110   1.474       .  S
C1071      C1072   1.371       .  A
C1071      H1074   1.080       .  S
C1072      C1073   1.385       .  A
C1072      H1075   1.079       .  S
C1073      C1094   1.510       .  S
N1076      C1080   1.360       .  A
N1076      C1077   1.357       .  A
C1077      C1078   1.375       .  A
C1077      C1093   1.480       .  S
C1078      C1079   1.357       .  A
C1078      H1081   1.077       .  S
C1079      C1080   1.371       .  A
C1079      H1082   1.083       .  S
C1080      C1109   1.464       .  S
O1083      V1091   1.878       .  S
O1083      C1093   1.259       .  A
O1084      C1094   1.263       .  A
O1085      V1091   1.919       .  S
O1085      C1095   1.273       .  A
O1086      C1096   1.273       .  A
O1087      C1096   1.265       .  A
O1088      V1092   1.889       .  S
O1088      C1095   1.256       .  A
O1089      C1094   1.276       .  A
O1090      V1092   1.937       .  S
O1090      C1093   1.273       .  A
V1091      V1092   2.084       .  T
O1097      V1105   1.926       .  S
O1097      C1107   1.278       .  A
O1098      V1105   1.914       .  S
O1098      C1108   1.267       .  A
O1099      V1105   1.877       .  S
O1099      C1109   1.258       .  A
O1100      V1105   1.884       .  S
O1100      C1110   1.253       .  A
O1101      V1106   1.930       .  S
O1101      C1110   1.279       .  A
O1102      V1106   1.921       .  S
O1102      C1109   1.270       .  A
O1103      V1106   1.870       .  S
O1103      C1108   1.256       .  A
O1104      V1106   1.872       .  S
O1104      C1107   1.250       .  A
V1105      V1106   2.079       .  T
N1111      C1115   1.366       .  A
N1111      C1112   1.369       .  A
N1111      N1201   1.425       .  S
C1112      C1113   1.379       .  A
C1112      C1136   1.488       .  S
C1113      C1114   1.370       .  A
C1113      H1116   1.066       .  S
C1114      C1115   1.374       .  A
C1114      H1117   1.082       .  S
C1115      N1270   1.432       .  S
N1118      C1122   1.368       .  A
N1118      C1119   1.383       .  A
N1118      N1291   1.434       .  S
C1119      C1120   1.383       .  A
C1120      C1121   1.365       .  A
C1120      H1123   1.075       .  S
C1121      C1122   1.367       .  A
C1121      H1124   1.081       .  S
C1122      N1145   1.426       .  S
N1125      C1129   1.359       .  A
N1125      C1126   1.382       .  A
N1125      N1249   1.423       .  S
C1126      C1127   1.381       .  A
C1127      C1128   1.369       .  A
C1127      H1130   1.073       .  S
C1128      C1129   1.367       .  A
C1128      H1131   1.081       .  S
C1129      N1187   1.426       .  S
C1132      N1137   1.364       .  A
C1134      N1135   1.365       .  A
N1135      C1136   1.371       .  A
C1136      N1581   1.368       .  A
N1137      C1580   1.368   1_545  A
N1138      C1142   1.367       .  A
N1138      C1139   1.357       .  A
N1138      N1229   1.434       .  S
C1139      C1218   1.475       .  S
C1140      C1141   1.371       .  A
C1140      H1143   1.080       .  S
C1141      H1144   1.079   1_655  S
C1142      C1170   1.510       .  S
N1145      C1149   1.349       .  A
N1145      C1146   1.348       .  A
C1146      C1172   1.470       .  S
C1147      C1148   1.368       .  A
C1147      H1150   1.078       .  S
C1148      H1151   1.074       .  S
C1149      C1184   1.461       .  S
N1152      C1156   1.369       .  A
N1152      C1153   1.355       .  A
N1152      N1242   1.423       .  S
C1153      C1183   1.480       .  S
C1154      C1155   1.375       .  A
C1154      H1157   1.080       .  S
C1155      H1158   1.078   1_655  S
C1156      C1171   1.505       .  S
O1160      V1167   1.907       .  S
O1160      C1170   1.263   1_455  A
O1161      V1167   1.929       .  S
O1161      C1171   1.273   1_455  A
O1163      C1172   1.256       .  A
O1164      V1168   1.906       .  S
O1165      V1168   1.930       .  S
O1166      C1169   1.273       .  A
C1169      C1188   1.480       .  S
O1173      V1181   1.923       .  S
O1174      V1181   1.907       .  S
O1174      C1184   1.266       .  A
O1175      V1181   1.871       .  S
O1176      V1181   1.874       .  S
O1176      C1186   1.252       .  A
O1177      V1182   1.907   1_554  S
O1178      V1182   1.909       .  S
O1178      C1185   1.265       .  A
O1179      V1182   1.889   1_554  S
O1180      V1182   1.898       .  S
O1180      C1183   1.258       .  A
C1185      C1198   1.452       .  S
C1186      C1202   1.451       .  S
N1187      C1191   1.360       .  A
N1187      C1188   1.357       .  A
C1189      C1190   1.357       .  A
C1189      H1192   1.077       .  S
C1190      H1193   1.083       .  S
C1191      C1219   1.464       .  S
N1194      C1198   1.356       .  A
N1194      C1195   1.356       .  A
N1194      C1226   1.432       .  S
C1195      C1221   1.454       .  S
C1196      C1197   1.350       .  A
C1196      H1199   1.082       .  S
C1197      H1200   1.083       .  S
N1201      C1205   1.359       .  A
N1201      C1202   1.355       .  A
C1203      C1204   1.355       .  A
C1203      H1206   1.083       .  S
C1204      H1207   1.083       .  S
C1205      C1220   1.462       .  S
O1208      V1660   1.930       .  S
O1209      V1216   1.921       .  S
O1209      C1219   1.270       .  A
O1210      V1216   1.872       .  S
O1210      C1220   1.250       .  A
O1211      V1660   1.870       .  S
O1212      V1661   1.914   1_545  S
O1212      C1221   1.267       .  A
O1213      V1217   1.926   1_554  S
O1214      V1217   1.877   1_554  S
O1215      V1661   1.884   1_545  S
O1215      C1218   1.253       .  A
V1216      O1652   1.930       .  S
V1216      O1655   1.870       .  S
V1217      O1656   1.914       .  S
V1217      O1659   1.884       .  S
N1222      C1226   1.366       .  A
N1222      C1223   1.369       .  A
N1222      N1263   1.425       .  S
C1223      C1224   1.379       .  A
C1223      C1240   1.488       .  S
C1224      C1225   1.370       .  A
C1224      H1227   1.067   1_556  S
C1225      C1226   1.374       .  A
C1225      H1228   1.082   1_556  S
N1229      C1233   1.368       .  A
N1229      C1230   1.383       .  A
C1230      C1231   1.383       .  A
C1230      C1236   1.502       .  S
C1231      C1232   1.365       .  A
C1231      H1234   1.075       .  S
C1232      C1233   1.367       .  A
C1232      H1235   1.081       .  S
C1233      N1256   1.426       .  S
C1236      N1681   1.372   1_545  A
C1236      N1241   1.364   1_655  A
N1237      C1680   1.372       .  A
N1237      C1238   1.372       .  A
C1238      N1239   1.365   1_655  A
C1238      C1243   1.509       .  S
N1242      C1246   1.359       .  A
N1242      C1243   1.381       .  A
C1243      C1244   1.381       .  A
C1244      C1245   1.370       .  A
C1244      H1247   1.073       .  S
C1245      C1246   1.368       .  A
C1245      H1248   1.081       .  S
C1246      N1298   1.426       .  S
N1249      C1253   1.369       .  A
N1249      C1250   1.355       .  A
C1250      C1251   1.367       .  A
C1250      C1287   1.480       .  S
C1251      C1252   1.375       .  A
C1251      H1254   1.080       .  S
C1252      C1253   1.385       .  A
C1252      H1255   1.078       .  S
C1253      C1318   1.505       .  S
N1256      C1260   1.349       .  A
N1256      C1257   1.348       .  A
C1257      C1258   1.366       .  A
C1257      C1317   1.470       .  S
C1258      C1259   1.368       .  A
C1258      H1261   1.078       .  S
C1259      C1260   1.361       .  A
C1259      H1262   1.073       .  S
C1260      C1288   1.461       .  S
N1263      C1267   1.359       .  A
N1263      C1264   1.355       .  A
C1264      C1265   1.379       .  A
C1264      C1289   1.451       .  S
C1265      C1266   1.355       .  A
C1265      H1268   1.083   1_545  S
C1266      C1267   1.380       .  A
C1266      H1269   1.084       .  S
C1267      C1329   1.462       .  S
N1270      C1274   1.357       .  A
N1270      C1271   1.356       .  A
C1271      C1272   1.376       .  A
C1271      C1330   1.454       .  S
C1272      C1273   1.350       .  A
C1272      H1275   1.082       .  S
C1273      C1274   1.382       .  A
C1273      H1276   1.083       .  S
C1274      C1290   1.452       .  S
O1277      V1285   1.923       .  S
O1277      C1287   1.275       .  A
O1278      V1729   1.907       .  S
O1278      C1288   1.266   1_565  A
O1279      V1729   1.874       .  S
O1279      C1289   1.252   1_565  A
O1280      V1285   1.871       .  S
O1280      C1290   1.258       .  A
O1281      V1286   1.909       .  S
O1281      C1290   1.265       .  A
O1282      V1730   1.908   1_545  S
O1282      C1289   1.272       .  A
O1283      V1730   1.888   1_545  S
O1283      C1288   1.260       .  A
O1284      V1286   1.898       .  S
O1284      C1287   1.258       .  A
V1285      O1722   1.907       .  S
V1285      O1723   1.874       .  S
V1285      V1286   2.086       .  T
V1286      O1726   1.908       .  S
V1286      O1727   1.888       .  S
N1291      C1295   1.367       .  A
N1291      C1292   1.357       .  A
C1292      C1293   1.367       .  A
C1292      C1332   1.474       .  S
C1293      C1294   1.371       .  A
C1293      H1296   1.080       .  S
C1294      C1295   1.385       .  A
C1294      H1297   1.079       .  S
C1295      C1316   1.510       .  S
N1298      C1302   1.360       .  A
N1298      C1299   1.357       .  A
C1299      C1300   1.375       .  A
C1299      C1315   1.480       .  S
C1300      C1301   1.357       .  A
C1300      H1303   1.077       .  S
C1301      C1302   1.371       .  A
C1301      H1304   1.083       .  S
C1302      C1331   1.464       .  S
O1305      V1313   1.878       .  S
O1305      C1315   1.259       .  A
O1306      C1316   1.263       .  A
O1307      V1313   1.919       .  S
O1307      C1317   1.273       .  A
O1308      C1318   1.273       .  A
O1309      C1318   1.265       .  A
O1310      V1314   1.889       .  S
O1310      C1317   1.256       .  A
O1311      C1316   1.276       .  A
O1312      V1314   1.937       .  S
O1312      C1315   1.273       .  A
V1313      V1314   2.084       .  T
O1319      V1327   1.926       .  S
O1319      C1329   1.278       .  A
O1320      V1327   1.914       .  S
O1320      C1330   1.267       .  A
O1321      V1327   1.877       .  S
O1321      C1331   1.258       .  A
O1322      V1327   1.884       .  S
O1322      C1332   1.253       .  A
O1323      V1328   1.930       .  S
O1323      C1332   1.279       .  A
O1324      V1328   1.921       .  S
O1324      C1331   1.270       .  A
O1325      V1328   1.870       .  S
O1325      C1330   1.256       .  A
O1326      V1328   1.872       .  S
O1326      C1329   1.250       .  A
V1327      V1328   2.079       .  T
N1333      C1337   1.366       .  A
N1333      C1334   1.369       .  A
N1333      N1423   1.425       .  S
C1334      C1335   1.379       .  A
C1334      C1358   1.488       .  S
C1335      C1336   1.370       .  A
C1335      H1338   1.067       .  S
C1336      C1337   1.374       .  A
C1336      H1339   1.082       .  S
C1337      N1492   1.432       .  S
N1340      C1344   1.368       .  A
N1340      C1341   1.383       .  A
N1340      N1513   1.434       .  S
C1341      C1342   1.383       .  A
C1342      C1343   1.365       .  A
C1342      H1345   1.075       .  S
C1343      C1344   1.367       .  A
C1343      H1346   1.081   1_554  S
C1344      N1367   1.426       .  S
N1347      C1351   1.359       .  A
N1347      C1348   1.382       .  A
N1347      N1471   1.423       .  S
C1348      C1349   1.381       .  A
C1349      C1350   1.369       .  A
C1349      H1352   1.073       .  S
C1350      C1351   1.367       .  A
C1350      H1353   1.081   1_554  S
C1351      N1409   1.426       .  S
C1354      N1359   1.364       .  A
C1356      N1357   1.365       .  A
N1357      C1358   1.371       .  A
N1360      C1364   1.367       .  A
N1360      C1361   1.357       .  A
N1360      N1451   1.434       .  S
C1361      C1584   1.367       .  A
C1361      C1440   1.475       .  S
C1362      C1583   1.367       .  A
C1362      C1363   1.371       .  A
C1362      H1365   1.080   1_556  S
C1363      C1586   1.385       .  A
C1363      H1366   1.079   1_655  S
C1364      C1585   1.385       .  A
C1364      C1392   1.510       .  S
N1367      C1371   1.349       .  A
N1367      C1368   1.348       .  A
C1368      C1591   1.366       .  A
C1368      C1394   1.470       .  S
C1369      C1590   1.366       .  A
C1369      C1370   1.368       .  A
C1369      H1372   1.078       .  S
C1370      C1593   1.361       .  A
C1370      H1373   1.074       .  S
C1371      C1592   1.361       .  A
C1371      C1406   1.461       .  S
N1374      C1378   1.369       .  A
N1374      C1375   1.355       .  A
N1374      N1464   1.423       .  S
C1375      C1598   1.367       .  A
C1375      C1405   1.480       .  S
C1376      C1597   1.367       .  A
C1376      C1377   1.375       .  A
C1376      H1379   1.080   1_556  S
C1377      C1600   1.385       .  A
C1377      H1380   1.078   1_655  S
C1378      C1599   1.385       .  A
C1378      C1393   1.505       .  S
O1381      C1613   1.259       .  A
O1382      V1389   1.907       .  S
O1382      C1392   1.263   1_455  A
O1383      V1389   1.929       .  S
O1383      C1393   1.273   1_455  A
O1384      C1616   1.273       .  A
O1385      C1394   1.256       .  A
O1386      V1390   1.906       .  S
O1386      C1615   1.265       .  A
O1387      V1390   1.930       .  S
O1387      C1614   1.276       .  A
O1388      C1391   1.273       .  A
V1389      V1612   2.084   1_455  T
V1390      V1611   2.084   1_655  T
C1391      C1410   1.480       .  S
C1391      O1603   1.259   1_554  A
C1392      O1609   1.276       .  A
C1393      O1608   1.265       .  A
C1394      O1606   1.273   1_554  A
O1395      V1403   1.923       .  S
O1395      C1627   1.275   1_554  A
O1396      V1403   1.907       .  S
O1396      C1406   1.266       .  A
O1397      V1403   1.871       .  S
O1397      C1629   1.258   1_554  A
O1398      V1403   1.874       .  S
O1398      C1408   1.252       .  A
O1399      V1404   1.907       .  S
O1399      C1630   1.272       .  A
O1400      V1404   1.909       .  S
O1400      C1407   1.265       .  A
O1401      V1404   1.889       .  S
O1401      C1628   1.260       .  A
O1402      V1404   1.898       .  S
O1402      C1405   1.258       .  A
V1403      V1626   2.086   1_554  T
V1404      V1625   2.086       .  T
C1405      O1617   1.275       .  A
C1406      O1623   1.260       .  A
C1407      C1420   1.452       .  S
C1407      O1619   1.258       .  A
C1408      C1424   1.451       .  S
C1408      O1621   1.272       .  A
N1409      C1413   1.360       .  A
N1409      C1410   1.357       .  A
C1410      C1633   1.374       .  A
C1411      C1632   1.374       .  A
C1411      C1412   1.357       .  A
C1411      H1414   1.077       .  S
C1412      C1635   1.371       .  A
C1412      H1415   1.083       .  S
C1413      C1634   1.371       .  A
C1413      C1441   1.464       .  S
N1416      C1420   1.356       .  A
N1416      C1417   1.356       .  A
N1416      C1448   1.432       .  S
C1417      C1640   1.376       .  A
C1417      C1443   1.454       .  S
C1418      C1639   1.376       .  A
C1418      C1419   1.350       .  A
C1418      H1421   1.082       .  S
C1419      C1642   1.383       .  A
C1419      H1422   1.083       .  S
C1420      C1641   1.383       .  A
N1423      C1427   1.359       .  A
N1423      C1424   1.355       .  A
C1424      C1647   1.379       .  A
C1425      C1646   1.379       .  A
C1425      C1426   1.355       .  A
C1425      H1428   1.083       .  S
C1426      C1649   1.380       .  A
C1426      H1429   1.083       .  S
C1427      C1648   1.380       .  A
C1427      C1442   1.462       .  S
O1430      C1662   1.279   1_554  A
O1431      V1438   1.921   1_565  S
O1431      C1441   1.270       .  A
O1432      V1438   1.872       .  S
O1432      C1442   1.250   1_545  A
O1433      C1665   1.256   1_554  A
O1434      C1443   1.267       .  A
O1435      V1439   1.926       .  S
O1435      C1664   1.278       .  A
O1436      V1439   1.877       .  S
O1436      C1663   1.258       .  A
O1437      C1440   1.253       .  A
V1438      V1661   2.080   1_544  T
V1439      V1660   2.080   1_565  T
C1440      O1652   1.279       .  A
C1441      O1658   1.258       .  A
C1442      O1657   1.278       .  A
C1443      O1655   1.256       .  A
N1444      C1448   1.366       .  A
N1444      C1445   1.369       .  A
N1444      N1485   1.425       .  S
C1445      C1446   1.379       .  A
C1445      C1462   1.488       .  S
C1446      C1447   1.370       .  A
C1446      H1449   1.067       .  S
C1447      C1448   1.374       .  A
C1447      H1450   1.082       .  S
N1451      C1455   1.368       .  A
N1451      C1452   1.383       .  A
C1452      C1453   1.383       .  A
C1452      C1458   1.502       .  S
C1453      C1454   1.365       .  A
C1453      H1456   1.075       .  S
C1454      C1455   1.367       .  A
C1454      H1457   1.081       .  S
C1455      N1478   1.426       .  S
C1458      N1463   1.364   1_655  A
N1459      C1460   1.372       .  A
C1460      N1461   1.365   1_655  A
C1460      C1465   1.509       .  S
N1464      C1468   1.359       .  A
N1464      C1465   1.381       .  A
C1465      C1466   1.381       .  A
C1466      C1467   1.370       .  A
C1466      H1469   1.073       .  S
C1467      C1468   1.368       .  A
C1467      H1470   1.081       .  S
C1468      N1520   1.426       .  S
N1471      C1475   1.369       .  A
N1471      C1472   1.355       .  A
C1472      C1473   1.367       .  A
C1472      C1509   1.480       .  S
C1473      C1474   1.375       .  A
C1473      H1476   1.080       .  S
C1474      C1475   1.385       .  A
C1474      H1477   1.078       .  S
C1475      C1540   1.505       .  S
N1478      C1482   1.349       .  A
N1478      C1479   1.348       .  A
C1479      C1480   1.366       .  A
C1479      C1539   1.470       .  S
C1480      C1481   1.368       .  A
C1480      H1483   1.078       .  S
C1481      C1482   1.361       .  A
C1481      H1484   1.073       .  S
C1482      C1510   1.461       .  S
N1485      C1489   1.359       .  A
N1485      C1486   1.355       .  A
C1486      C1487   1.379       .  A
C1486      C1511   1.451       .  S
C1487      C1488   1.355       .  A
C1487      H1490   1.083       .  S
C1488      C1489   1.380       .  A
C1488      H1491   1.084       .  S
C1489      C1551   1.462       .  S
N1492      C1496   1.357       .  A
N1492      C1493   1.356       .  A
C1493      C1494   1.376       .  A
C1493      C1552   1.454       .  S
C1494      C1495   1.350       .  A
C1494      H1497   1.082       .  S
C1495      C1496   1.382       .  A
C1495      H1498   1.083       .  S
C1496      C1512   1.452       .  S
O1499      V1507   1.923       .  S
O1499      C1509   1.275       .  A
O1500      C1510   1.266       .  A
O1501      C1511   1.252       .  A
O1502      V1507   1.871       .  S
O1502      C1512   1.258       .  A
O1503      V1508   1.909       .  S
O1503      C1512   1.265       .  A
O1504      C1511   1.272       .  A
O1505      C1510   1.260       .  A
O1506      V1508   1.898       .  S
O1506      C1509   1.258       .  A
V1507      V1508   2.086       .  T
N1513      C1517   1.367       .  A
N1513      C1514   1.357       .  A
C1514      C1515   1.367       .  A
C1514      C1554   1.474       .  S
C1515      C1516   1.371       .  A
C1515      H1518   1.080       .  S
C1516      C1517   1.385       .  A
C1516      H1519   1.079       .  S
C1517      C1538   1.510       .  S
N1520      C1524   1.360       .  A
N1520      C1521   1.357       .  A
C1521      C1522   1.375       .  A
C1521      C1537   1.480       .  S
C1522      C1523   1.357       .  A
C1522      H1525   1.077       .  S
C1523      C1524   1.371       .  A
C1523      H1526   1.083       .  S
C1524      C1553   1.464       .  S
O1527      V1535   1.878       .  S
O1527      C1537   1.259       .  A
O1528      C1538   1.263       .  A
O1529      V1535   1.919       .  S
O1529      C1539   1.273       .  A
O1530      C1540   1.273       .  A
O1531      C1540   1.265       .  A
O1532      V1536   1.889       .  S
O1532      C1539   1.256       .  A
O1533      C1538   1.276       .  A
O1534      V1536   1.937       .  S
O1534      C1537   1.273       .  A
V1535      V1536   2.084       .  T
O1541      V1549   1.926       .  S
O1541      C1551   1.278       .  A
O1542      V1549   1.914       .  S
O1542      C1552   1.267       .  A
O1543      V1549   1.877       .  S
O1543      C1553   1.258       .  A
O1544      V1549   1.884       .  S
O1544      C1554   1.253       .  A
O1545      V1550   1.930       .  S
O1545      C1554   1.279       .  A
O1546      V1550   1.921       .  S
O1546      C1553   1.270       .  A
O1547      V1550   1.870       .  S
O1547      C1552   1.256       .  A
O1548      V1550   1.872       .  S
O1548      C1551   1.250       .  A
V1549      V1550   2.079       .  T
N1555      C1559   1.366       .  A
N1555      C1556   1.369       .  A
N1555      N1645   1.425       .  S
C1556      C1557   1.379       .  A
C1556      C1580   1.488       .  S
C1557      C1558   1.370       .  A
C1557      H1560   1.066       .  S
C1558      C1559   1.374       .  A
C1558      H1561   1.082       .  S
C1559      N1714   1.432       .  S
N1562      C1566   1.368       .  A
N1562      C1563   1.383       .  A
N1562      N1735   1.434       .  S
C1563      C1564   1.383       .  A
C1564      C1565   1.365       .  A
C1564      H1567   1.075       .  S
C1565      C1566   1.367       .  A
C1565      H1568   1.081       .  S
C1566      N1589   1.426       .  S
N1569      C1573   1.359       .  A
N1569      C1570   1.382       .  A
N1569      N1693   1.423       .  S
C1570      C1571   1.381       .  A
C1571      C1572   1.369       .  A
C1571      H1574   1.073       .  S
C1572      C1573   1.367       .  A
C1572      H1575   1.081       .  S
C1573      N1631   1.426       .  S
C1576      N1581   1.364       .  A
C1578      N1579   1.365       .  A
N1579      C1580   1.371       .  A
N1582      C1586   1.367       .  A
N1582      C1583   1.357       .  A
N1582      N1673   1.434       .  S
C1583      C1662   1.475       .  S
C1584      C1585   1.371       .  A
C1584      H1587   1.080       .  S
C1585      H1588   1.079   1_655  S
C1586      C1614   1.510       .  S
N1589      C1593   1.349       .  A
N1589      C1590   1.348       .  A
C1590      C1616   1.470       .  S
C1591      C1592   1.368       .  A
C1591      H1594   1.078       .  S
C1592      H1595   1.074       .  S
C1593      C1628   1.461       .  S
N1596      C1600   1.369       .  A
N1596      C1597   1.355       .  A
N1596      N1686   1.423       .  S
C1597      C1627   1.480       .  S
C1598      C1599   1.375       .  A
C1598      H1601   1.080       .  S
C1599      H1602   1.078   1_655  S
C1600      C1615   1.505       .  S
O1604      V1611   1.907       .  S
O1604      C1614   1.263   1_455  A
O1605      V1611   1.929       .  S
O1605      C1615   1.273   1_455  A
O1607      C1616   1.256       .  A
O1608      V1612   1.906       .  S
O1609      V1612   1.930       .  S
O1610      C1613   1.273       .  A
C1613      C1632   1.480       .  S
O1617      V1625   1.923       .  S
O1618      V1625   1.907       .  S
O1618      C1628   1.266       .  A
O1619      V1625   1.871       .  S
O1620      V1625   1.874       .  S
O1620      C1630   1.252       .  A
O1621      V1626   1.907   1_554  S
O1622      V1626   1.909       .  S
O1622      C1629   1.265       .  A
O1623      V1626   1.889   1_554  S
O1624      V1626   1.898       .  S
O1624      C1627   1.258       .  A
C1629      C1642   1.452       .  S
C1630      C1646   1.451       .  S
N1631      C1635   1.360       .  A
N1631      C1632   1.357       .  A
C1633      C1634   1.357       .  A
C1633      H1636   1.077       .  S
C1634      H1637   1.083       .  S
C1635      C1663   1.464       .  S
N1638      C1642   1.356       .  A
N1638      C1639   1.356       .  A
N1638      C1670   1.432       .  S
C1639      C1665   1.454       .  S
C1640      C1641   1.350       .  A
C1640      H1643   1.082       .  S
C1641      H1644   1.083       .  S
N1645      C1649   1.359       .  A
N1645      C1646   1.355       .  A
C1647      C1648   1.355       .  A
C1647      H1650   1.083       .  S
C1648      H1651   1.083       .  S
C1649      C1664   1.462       .  S
O1653      V1660   1.921   1_565  S
O1653      C1663   1.270       .  A
O1654      V1660   1.872       .  S
O1654      C1664   1.250   1_545  A
O1656      C1665   1.267       .  A
O1657      V1661   1.926   1_554  S
O1658      V1661   1.877   1_554  S
O1659      C1662   1.253       .  A
N1666      C1670   1.366       .  A
N1666      C1667   1.369       .  A
N1666      N1707   1.425       .  S
C1667      C1668   1.379       .  A
C1667      C1684   1.488       .  S
C1668      C1669   1.370       .  A
C1668      H1671   1.067   1_556  S
C1669      C1670   1.374       .  A
C1669      H1672   1.082   1_556  S
N1673      C1677   1.368       .  A
N1673      C1674   1.383       .  A
C1674      C1675   1.383       .  A
C1674      C1680   1.502       .  S
C1675      C1676   1.365       .  A
C1675      H1678   1.075       .  S
C1676      C1677   1.367       .  A
C1676      H1679   1.081       .  S
C1677      N1700   1.426       .  S
C1680      N1685   1.364   1_655  A
N1681      C1682   1.372       .  A
C1682      N1683   1.365   1_655  A
C1682      C1687   1.509       .  S
N1686      C1690   1.359       .  A
N1686      C1687   1.381       .  A
C1687      C1688   1.381       .  A
C1688      C1689   1.370       .  A
C1688      H1691   1.073       .  S
C1689      C1690   1.368       .  A
C1689      H1692   1.081       .  S
C1690      N1742   1.426       .  S
N1693      C1697   1.369       .  A
N1693      C1694   1.355       .  A
C1694      C1695   1.367       .  A
C1694      C1731   1.480       .  S
C1695      C1696   1.375       .  A
C1695      H1698   1.080       .  S
C1696      C1697   1.385       .  A
C1696      H1699   1.078       .  S
C1697      C1762   1.505       .  S
N1700      C1704   1.349       .  A
N1700      C1701   1.348       .  A
C1701      C1702   1.366       .  A
C1701      C1761   1.470       .  S
C1702      C1703   1.368       .  A
C1702      H1705   1.078       .  S
C1703      C1704   1.361       .  A
C1703      H1706   1.073       .  S
C1704      C1732   1.461       .  S
N1707      C1711   1.359       .  A
N1707      C1708   1.355       .  A
C1708      C1709   1.379       .  A
C1708      C1733   1.451       .  S
C1709      C1710   1.355       .  A
C1709      H1712   1.083       .  S
C1710      C1711   1.380       .  A
C1710      H1713   1.084       .  S
C1711      C1773   1.462       .  S
N1714      C1718   1.357       .  A
N1714      C1715   1.356       .  A
C1715      C1716   1.376       .  A
C1715      C1774   1.454       .  S
C1716      C1717   1.350       .  A
C1716      H1719   1.082       .  S
C1717      C1718   1.382       .  A
C1717      H1720   1.083       .  S
C1718      C1734   1.452       .  S
O1721      V1729   1.923       .  S
O1721      C1731   1.275       .  A
O1722      C1732   1.266       .  A
O1723      C1733   1.252       .  A
O1724      V1729   1.871       .  S
O1724      C1734   1.258       .  A
O1725      V1730   1.909       .  S
O1725      C1734   1.265       .  A
O1726      C1733   1.272       .  A
O1727      C1732   1.260       .  A
O1728      V1730   1.898       .  S
O1728      C1731   1.258       .  A
V1729      V1730   2.086       .  T
N1735      C1739   1.367       .  A
N1735      C1736   1.357       .  A
C1736      C1737   1.367       .  A
C1736      C1776   1.474       .  S
C1737      C1738   1.371       .  A
C1737      H1740   1.080       .  S
C1738      C1739   1.385       .  A
C1738      H1741   1.079       .  S
C1739      C1760   1.510       .  S
N1742      C1746   1.360       .  A
N1742      C1743   1.357       .  A
C1743      C1744   1.375       .  A
C1743      C1759   1.480       .  S
C1744      C1745   1.357       .  A
C1744      H1747   1.077       .  S
C1745      C1746   1.371       .  A
C1745      H1748   1.083       .  S
C1746      C1775   1.464       .  S
O1749      V1757   1.878       .  S
O1749      C1759   1.259       .  A
O1750      C1760   1.263       .  A
O1751      V1757   1.919       .  S
O1751      C1761   1.273       .  A
O1752      C1762   1.273       .  A
O1753      C1762   1.265       .  A
O1754      V1758   1.889       .  S
O1754      C1761   1.256       .  A
O1755      C1760   1.276       .  A
O1756      V1758   1.937       .  S
O1756      C1759   1.273       .  A
V1757      V1758   2.084       .  T
O1763      V1771   1.926       .  S
O1763      C1773   1.278       .  A
O1764      V1771   1.914       .  S
O1764      C1774   1.267       .  A
O1765      V1771   1.877       .  S
O1765      C1775   1.258       .  A
O1766      V1771   1.884       .  S
O1766      C1776   1.253       .  A
O1767      V1772   1.930       .  S
O1767      C1776   1.279       .  A
O1768      V1772   1.921       .  S
O1768      C1775   1.270       .  A
O1769      V1772   1.870       .  S
O1769      C1774   1.256       .  A
O1770      V1772   1.872       .  S
O1770      C1773   1.250       .  A
V1771      V1772   2.079       .  T
