geometry optimzed in LAMMPS
_audit_creation_date              2020-11-30 
_audit_creation_method            'lammps2cif' 
_symmetry_space_group_name_H-M    'P1' 
_symmetry_Int_Tables_number       1 
_symmetry_cell_setting            triclinic 
loop_ 
_symmetry_equiv_pos_as_xyz 
  x,y,z 
_cell_length_a                    24.38089581836477 
_cell_length_b                    24.8418939796874 
_cell_length_c                    43.76952670286938 
_cell_angle_alpha                 88.97215497782324 
_cell_angle_beta                  89.0915973858407 
_cell_angle_gamma                 91.02153249196819 
loop_ 
_atom_site_label 
_atom_site_type_symbol 
_atom_site_fract_x 
_atom_site_fract_y 
_atom_site_fract_z 
_atom_site_charge 
O1          O  0.22307583  0.07682017  0.19307098    -0.80590
O2          O  0.24787902  0.16469948  0.07079140    -0.80610
O3          O  0.26175033  0.22004271  0.12995737    -0.80620
O4          O  0.16472998  0.11727463  0.10907787    -0.80560
O5          O  0.32614873  0.20966066  0.09521710    -0.80680
O6          O  0.16451208  0.04992681  0.14342390    -0.80600
O7          O  0.20010683  0.10596659  0.04730462    -0.80590
O8          O  0.21808843  0.16233124  0.17981692    -0.80630
C9          C  0.20400911  0.12284450  0.19731466     1.09100
C10         C  0.22545251  0.15140071  0.04615216     1.08990
C11         C  0.29284224  0.24016096  0.10937172     1.09120
C12         C  0.14001651  0.08817588  0.12915673     1.09000
O13         O  0.26362835  0.99196094  0.12185150    -0.80590
O14         O  0.37758613  0.10670581  0.11048661    -0.80670
O15         O  0.32372711  0.11619409  0.18936429    -0.80600
O16         O  0.29452268  0.05449299  0.06779276    -0.80580
O17         O  0.34536423  0.12282452  0.05061810    -0.80630
O18         O  0.32041617  0.03316727  0.17103029    -0.80600
O19         O  0.19703674  0.01177886  0.09243396    -0.80560
O20         O  0.37174889  0.17513541  0.14150165    -0.80630
Co21       Co  0.24520468  0.04078184  0.15507898     1.51530
Co22       Co  0.31110490  0.12867659  0.09119997     1.51690
Co23       Co  0.29167653  0.16549969  0.15804108     1.51570
Co24       Co  0.22914364  0.08953017  0.08924149     1.51470
O25         O  0.26872867  0.10593668  0.12917390    -1.42520
C26         C  0.22282486  0.97562249  0.10722746     1.09030
C27         C  0.40089523  0.14362230  0.12523406     1.09120
C28         C  0.33684054  0.06682104  0.19062211     1.09060
C29         C  0.32540918  0.07560575  0.04655945     1.09030
O30         O  0.29153405  0.49988584  0.14151128    -0.80590
O31         O  0.26515909  0.66064905  0.06162896    -0.80610
O32         O  0.14236449  0.53023732  0.08182780    -0.80620
O33         O  0.35555921  0.65951606  0.11144125    -0.80560
O34         O  0.20240090  0.57544533  0.05553709    -0.80680
O35         O  0.33865868  0.57574910  0.10271315    -0.80600
O36         O  0.27957074  0.72826744  0.08929085    -0.80590
O37         O  0.23385967  0.49053203  0.10531500    -0.80630
C38         C  0.27123750  0.47075484  0.12092275     1.09100
C39         C  0.27356140  0.71006775  0.06288073     1.08990
C40         C  0.16668810  0.53836870  0.05665088     1.09120
C41         C  0.37064383  0.61589062  0.10010155     1.09000
O42         O  0.35384486  0.58190255  0.16334794    -0.80590
O43         O  0.11531914  0.62537158  0.09329912    -0.80670
O44         O  0.19362995  0.52029244  0.16626025    -0.80600
O45         O  0.21562168  0.71606854  0.14355741    -0.80580
O46         O  0.17955854  0.71642411  0.09769148    -0.80630
O47         O  0.24313942  0.58836899  0.17821523    -0.80600
O48         O  0.31239423  0.65861322  0.17187351    -0.80560
O49         O  0.12495997  0.58514167  0.13808663    -0.80630
Co50       Co  0.29112729  0.58204279  0.13922676     1.51530
Co51       Co  0.19318776  0.64205666  0.07898519     1.51690
Co52       Co  0.17998604  0.53952998  0.12248359     1.51570
Co53       Co  0.28302337  0.68121273  0.12826413     1.51470
O54         O  0.23119891  0.60924494  0.11571655    -1.42520
C55         C  0.34769773  0.62206646  0.17999592     1.09030
C56         C  0.09615163  0.60880670  0.11915047     1.09120
C57         C  0.20552005  0.55509651  0.18563036     1.09060
C58         C  0.18975002  0.74095303  0.12264466     1.09030
O59         O  0.88231932  0.08313333  0.11070232    -0.80590
O60         O  0.67648079  0.17061250  0.17157017    -0.80610
O61         O  0.85075889  0.15381174  0.16872405    -0.80620
O62         O  0.77732252  0.02208233  0.15863889    -0.80560
O63         O  0.77795195  0.19012954  0.18331209    -0.80680
O64         O  0.80504357  0.00721652  0.11172830    -0.80600
O65         O  0.70800529  0.09256360  0.18519671    -0.80590
O66         O  0.88651637  0.17024702  0.11358722    -0.80630
C67         C  0.91005612  0.12529961  0.11506574     1.09100
C68         C  0.67648014  0.13173097  0.19021970     1.08990
C69         C  0.82525644  0.17435258  0.18992074     1.09120
C70         C  0.79431599  0.99065464  0.13889708     1.09000
O71         O  0.73706792  0.07894969  0.07475464    -0.80590
O72         O  0.73789723  0.26245438  0.14489726    -0.80670
O73         O  0.78019365  0.20751221  0.09446067    -0.80600
O74         O  0.64902947  0.09749123  0.13061490    -0.80580
O75         O  0.67526074  0.17723773  0.11124531    -0.80630
O76         O  0.82317905  0.14829188  0.06748996    -0.80600
O77         O  0.70653968  0.01463899  0.10401975    -0.80560
O78         O  0.82967764  0.25470136  0.14087306    -0.80630
Co79       Co  0.80962816  0.08135705  0.09272454     1.51530
Co80       Co  0.73677185  0.18325123  0.14222426     1.51690
Co81       Co  0.81237839  0.17981891  0.13278768     1.51570
Co82       Co  0.71334592  0.05902212  0.14440268     1.51470
O83         O  0.77098156  0.11219853  0.12932280    -1.42520
C84         C  0.71569427  0.03299000  0.07687268     1.09030
C85         C  0.78693503  0.28358428  0.14399765     1.09120
C86         C  0.80024637  0.19331372  0.06926039     1.09060
C87         C  0.63808537  0.14003703  0.11591172     1.09030
O88         O  0.85891218  0.62524322  0.09918325    -0.80590
O89         O  0.64376581  0.67370389  0.17890225    -0.80610
O90         O  0.81083235  0.74728895  0.15937628    -0.80620
O91         O  0.71602930  0.50924417  0.14034488    -0.80560
O92         O  0.75391539  0.68416148  0.17783266    -0.80680
O93         O  0.78356406  0.53802798  0.10715734    -0.80600
O94         O  0.68796817  0.59640744  0.17594671    -0.80590
O95         O  0.83351646  0.64565746  0.14489460    -0.80630
C96         C  0.87069688  0.63461892  0.12630254     1.09100
C97         C  0.65266455  0.62765258  0.18967962     1.08990
C98         C  0.79425223  0.71854590  0.18213165     1.09120
C99         C  0.76178024  0.50224702  0.12634951     1.09000
O100        O  0.72005873  0.60496341  0.05834299    -0.80590
O101        O  0.67983028  0.75340077  0.14714297    -0.80670
O102        O  0.82859996  0.72729293  0.09410036    -0.80600
O103        O  0.62496036  0.57874351  0.12504623    -0.80580
O104        O  0.62243043  0.66583612  0.11953170    -0.80630
O105        O  0.79268423  0.67802185  0.05801716    -0.80600
O106        O  0.69044746  0.54218660  0.08724130    -0.80560
O107        O  0.73662063  0.75301790  0.11098863    -0.80630
Co108      Co  0.78526791  0.61257661  0.08240198     1.51530
Co109      Co  0.68878571  0.67353753  0.14609482     1.51690
Co110      Co  0.78145452  0.69951037  0.12943315     1.51570
Co111      Co  0.70421031  0.57941531  0.12899150     1.51470
O112        O  0.73344302  0.65083585  0.11094081    -1.42520
C113        C  0.69810065  0.56051925  0.06050053     1.09030
C114        C  0.71020674  0.77967487  0.12913906     1.09120
C115        C  0.81416770  0.72139565  0.06652564     1.09060
C116        C  0.59910433  0.61972236  0.11707089     1.09030
O117        O  0.28704826  0.36655179  0.95289004    -0.80590
O118        O  0.26519349  0.32991987  0.80348994    -0.80610
O119        O  0.16222196  0.28668741  0.89255470    -0.80620
O120        O  0.36655815  0.42069715  0.87214508    -0.80560
O121        O  0.21329165  0.26857300  0.85155699    -0.80680
O122        O  0.34271586  0.34919767  0.89812888    -0.80600
O123        O  0.33698710  0.35646590  0.82767182    -0.80590
O124        O  0.24450669  0.30947815  0.92422395    -0.80630
C125        C  0.26452465  0.31961020  0.95020688     1.09100
C126        C  0.31700262  0.33950949  0.80380721     1.08990
C127        C  0.18479590  0.25306372  0.87452209     1.09120
C128        C  0.38025470  0.37871000  0.88663229     1.09000
O129        O  0.30214799  0.46762371  0.90531025    -0.80590
O130        O  0.12297105  0.34154070  0.85242251    -0.80670
O131        O  0.15388793  0.36728285  0.94136629    -0.80600
O132        O  0.26037130  0.43307009  0.80255028    -0.80580
O133        O  0.18125734  0.40982556  0.82078051    -0.80630
O134        O  0.21080711  0.43109976  0.92639960    -0.80600
O135        O  0.27410903  0.48663193  0.85822752    -0.80560
O136        O  0.13728305  0.40631973  0.88332874    -0.80630
Co137      Co  0.27390292  0.38720015  0.90947883     1.51530
Co138      Co  0.19981003  0.33867425  0.83423011     1.51690
Co139      Co  0.19445237  0.36095453  0.90240111     1.51570
Co140      Co  0.30451779  0.42195473  0.84211237     1.51470
O141        O  0.24583591  0.37612169  0.86646092    -1.42520
C142        C  0.28777723  0.50226215  0.88429643     1.09030
C143        C  0.10443042  0.38137421  0.86671135     1.09120
C144        C  0.17391664  0.41441411  0.94552265     1.09060
C145        C  0.20905963  0.42723754  0.79915872     1.09030
O146        O  0.28474458  0.95830974  0.91607862    -0.80590
O147        O  0.31917930  0.88567875  0.80866031    -0.80610
O148        O  0.37741162  0.87305027  0.88153418    -0.80620
O149        O  0.23215790  0.01289036  0.84114206    -0.80560
O150        O  0.36976187  0.81423744  0.84581971    -0.80680
O151        O  0.20017847  0.99359206  0.88797684    -0.80600
O152        O  0.32694119  0.95463248  0.83901072    -0.80590
O153        O  0.32699386  0.89443316  0.93832212    -0.80630
C154        C  0.31119042  0.94239876  0.93841423     1.09100
C155        C  0.34235183  0.92992423  0.81525263     1.08990
C156        C  0.40039527  0.84158794  0.86373991     1.09120
C157        C  0.20984732  0.02762843  0.86586390     1.09000
O158        O  0.15037709  0.88172622  0.89470650    -0.80590
O159        O  0.25848697  0.76124565  0.85645688    -0.80670
O160        O  0.26330366  0.79808510  0.92901673    -0.80600
O161        O  0.22762680  0.92110361  0.80759345    -0.80580
O162        O  0.21292560  0.83553869  0.81702416    -0.80630
O163        O  0.22037435  0.86924104  0.94292663    -0.80600
O164        O  0.16451416  0.92694948  0.85267666    -0.80560
O165        O  0.32730729  0.76386536  0.88699939    -0.80630
Co166      Co  0.21929739  0.91689346  0.90493710     1.51530
Co167      Co  0.28727981  0.82670200  0.83501577     1.51690
Co168      Co  0.31940424  0.83764366  0.90527624     1.51570
Co169      Co  0.24805681  0.93988186  0.85056414     1.51470
O170        O  0.26489669  0.87101693  0.87329794    -1.42520
C171        C  0.13183599  0.90147024  0.87067218     1.09030
C172        C  0.28965848  0.73686320  0.87436824     1.09120
C173        C  0.23657942  0.82224140  0.94871518     1.09060
C174        C  0.20448970  0.87706273  0.80049046     1.09030
O175        O  0.79852061  0.36649356  0.95270131    -0.80590
O176        O  0.80054151  0.33260725  0.82814299    -0.80610
O177        O  0.68668533  0.25351536  0.89872669    -0.80620
O178        O  0.83276660  0.43123484  0.85875358    -0.80560
O179        O  0.74323035  0.25926871  0.85977108    -0.80680
O180        O  0.85806961  0.40483214  0.90467388    -0.80600
O181        O  0.80551497  0.41855903  0.83004029    -0.80590
O182        O  0.76654838  0.28724624  0.93848373    -0.80630
C183        C  0.79334802  0.31557118  0.95680498     1.09100
C184        C  0.81696237  0.37622990  0.81546617     1.08990
C185        C  0.71613952  0.23124745  0.87881605     1.09120
C186        C  0.87043299  0.41579123  0.87747729     1.09000
O187        O  0.78105140  0.49222938  0.89305005    -0.80590
O188        O  0.64470535  0.32792834  0.86199411    -0.80670
O189        O  0.69682336  0.37121100  0.95813014    -0.80600
O190        O  0.70011210  0.40312235  0.82212395    -0.80580
O191        O  0.70320231  0.31565220  0.81186279    -0.80630
O192        O  0.71126318  0.44131606  0.93062368    -0.80600
O193        O  0.74004270  0.49523973  0.84803188    -0.80560
O194        O  0.63615066  0.35553743  0.90882484    -0.80630
Co195      Co  0.78492301  0.42024838  0.91773812     1.51530
Co196      Co  0.72749608  0.33293882  0.85004536     1.51690
Co197      Co  0.70111646  0.32070909  0.92239394     1.51570
Co198      Co  0.74525948  0.42483695  0.86249127     1.51470
O199        O  0.75246289  0.36037915  0.88960451    -1.42520
C200        C  0.76245798  0.51859640  0.86990041     1.09030
C201        C  0.61506932  0.34519404  0.88388504     1.09120
C202        C  0.69575239  0.42147255  0.95556431     1.09060
C203        C  0.68849731  0.36241061  0.80439027     1.09030
O204        O  0.82683455  0.88270009  0.94875836    -0.80590
O205        O  0.76526241  0.80504415  0.80755673    -0.80610
O206        O  0.72235617  0.76457087  0.89561713    -0.80620
O207        O  0.86327535  0.94210284  0.85063964    -0.80560
O208        O  0.79363653  0.77818646  0.86669539    -0.80680
O209        O  0.87990936  0.90475754  0.89535655    -0.80600
O210        O  0.83128175  0.85080438  0.82759541    -0.80590
O211        O  0.78784481  0.80585337  0.93685700    -0.80630
C212        C  0.81640296  0.83371642  0.95435831     1.09100
C213        C  0.81412035  0.82430811  0.80477537     1.08990
C214        C  0.76227687  0.74610690  0.88085552     1.09120
C215        C  0.89700197  0.92214151  0.86992957     1.09000
O216        O  0.81042928  0.99739374  0.88596845    -0.80590
O217        O  0.67478924  0.81152134  0.85510594    -0.80670
O218        O  0.71192082  0.88840302  0.95120035    -0.80600
O219        O  0.77756331  0.93401661  0.80140954    -0.80580
O220        O  0.70927069  0.89377155  0.82535025    -0.80630
O221        O  0.74969106  0.96276012  0.93358012    -0.80600
O222        O  0.74330707  0.97409798  0.85687592    -0.80560
O223        O  0.65687654  0.85756671  0.89671243    -0.80630
Co224      Co  0.81426906  0.93268289  0.91354404     1.51530
Co225      Co  0.75441094  0.83862416  0.84813553     1.51690
Co226      Co  0.72219475  0.83360033  0.91753541     1.51570
Co227      Co  0.78532088  0.91110213  0.84468868     1.51470
O228        O  0.76850990  0.88022848  0.88742430    -1.42520
C229        C  0.76786124  0.00931810  0.87155146     1.09030
C230        C  0.63993535  0.83327295  0.87328037     1.09120
C231        C  0.72574894  0.93732375  0.95496792     1.09060
C232        C  0.72789850  0.91665652  0.80096403     1.09030
O233        O  0.04658034  0.44343474  0.68891428    -0.80590
O234        O  0.95734602  0.30962964  0.57228251    -0.80610
O235        O  0.98695701  0.27599034  0.64472433    -0.80620
O236        O  0.11203503  0.36665565  0.59802950    -0.80560
O237        O  0.94174245  0.28539350  0.60113714    -0.80680
O238        O  0.10730872  0.41401103  0.63991739    -0.80600
O239        O  0.03642264  0.34548372  0.55413238    -0.80590
O240        O  0.05486947  0.35637502  0.68037183    -0.80630
C241        C  0.06680912  0.39902479  0.69684385     1.09100
C242        C  0.99811189  0.30933524  0.55334615     1.08990
C243        C  0.96428179  0.25501467  0.62189970     1.09120
C244        C  0.13315833  0.38190707  0.62228800     1.09000
O245        O  0.01127196  0.48836586  0.63599984    -0.80590
O246        O  0.85896107  0.35767669  0.59487313    -0.80670
O247        O  0.95353068  0.33148272  0.69355646    -0.80600
O248        O  0.00057187  0.45712342  0.56372215    -0.80580
O249        O  0.93760150  0.39953352  0.55336455    -0.80630
O250        O  0.94722349  0.41609054  0.67841790    -0.80600
O251        O  0.07776028  0.48025743  0.60189483    -0.80560
O252        O  0.89487812  0.35728870  0.64193524    -0.80630
Co253      Co  0.02378859  0.41661020  0.65249286     1.51530
Co254      Co  0.93436200  0.36980432  0.59844918     1.51690
Co255      Co  0.97989705  0.35199389  0.65500471     1.51570
Co256      Co  0.05515854  0.41011275  0.58106830     1.51470
O257        O  0.00529865  0.38079717  0.61426242    -1.42520
C258        C  0.04537935  0.50973997  0.61737716     1.09030
C259        C  0.85278785  0.36055525  0.62378205     1.09120
C260        C  0.93349082  0.37686923  0.69801416     1.09060
C261        C  0.96940581  0.43843389  0.54441250     1.09030
O262        O  0.93735187  0.84401195  0.66674403    -0.80590
O263        O  0.95533480  0.86840041  0.54489305    -0.80610
O264        O  0.90513771  0.93068452  0.63821646    -0.80620
O265        O  0.07042163  0.76988602  0.60547763    -0.80560
O266        O  0.89321463  0.88924084  0.59579796    -0.80680
O267        O  0.99942688  0.76721358  0.63590500    -0.80600
O268        O  0.99515298  0.80212969  0.56758596    -0.80590
O269        O  0.95081560  0.92103705  0.68980017    -0.80630
C270        C  0.92628836  0.87492050  0.68953388     1.09100
C271        C  0.96713325  0.81902674  0.54602177     1.08990
C272        C  0.87345286  0.90788961  0.61987165     1.09120
C273        C  0.03425201  0.74269696  0.62004552     1.09000
O274        O  0.10128493  0.83380235  0.64254748    -0.80590
O275        O  0.95084935  0.99427318  0.60148275    -0.80670
O276        O  0.05469887  0.90226648  0.67618129    -0.80600
O277        O  0.06650051  0.89041935  0.54611651    -0.80580
O278        O  0.02155233  0.96246627  0.55858251    -0.80630
O279        O  0.03335176  0.81860522  0.68985093    -0.80600
O280        O  0.12420643  0.87346751  0.59927808    -0.80560
O281        O  0.00280442  0.99173014  0.64253425    -0.80630
Co282      Co  0.01701760  0.84180753  0.64941292     1.51530
Co283      Co  0.95863870  0.92458029  0.57822291     1.51690
Co284      Co  0.98351072  0.91388638  0.65069459     1.51570
Co285      Co  0.05950068  0.83940034  0.58232547     1.51470
O286        O  0.00822412  0.88422292  0.60923286    -1.42520
C287        C  0.13835203  0.85194420  0.62400762     1.09030
C288        C  0.97801697  0.01858664  0.62193763     1.09120
C289        C  0.05860388  0.86223081  0.69585891     1.09060
C290        C  0.05508209  0.93928046  0.54138288     1.09030
O291        O  0.42006503  0.37912899  0.67232750    -0.80590
O292        O  0.49034664  0.44394980  0.56527154    -0.80610
O293        O  0.48341451  0.48057118  0.63432237    -0.80620
O294        O  0.38978977  0.35095892  0.59461613    -0.80560
O295        O  0.55849522  0.48372285  0.60790755    -0.80680
O296        O  0.38902680  0.30373440  0.63687325    -0.80600
O297        O  0.45944467  0.36874933  0.54743829    -0.80590
O298        O  0.47539257  0.43933715  0.69018429    -0.80630
C299        C  0.43330566  0.40927948  0.69413894     1.09100
C300        C  0.46084390  0.41932016  0.54677608     1.08990
C301        C  0.51900158  0.50814836  0.62024372     1.09120
C302        C  0.36426943  0.33375363  0.61788673     1.09000
O303        O  0.50274918  0.25419369  0.64166226    -0.80590
O304        O  0.61591127  0.38450336  0.60654084    -0.80670
O305        O  0.55992962  0.40259412  0.67640993    -0.80600
O306        O  0.52654626  0.28272892  0.57026435    -0.80580
O307        O  0.56575781  0.35664526  0.55259368    -0.80630
O308        O  0.52432756  0.32403033  0.68696360    -0.80600
O309        O  0.44436265  0.24799758  0.60550535    -0.80560
O310        O  0.58510959  0.41908335  0.65053637    -0.80630
Co311      Co  0.46467963  0.31892890  0.65490084     1.51530
Co312      Co  0.55281231  0.41155931  0.58621109     1.51690
Co313      Co  0.49536156  0.40824686  0.65059906     1.51570
Co314      Co  0.45847911  0.31749024  0.58280226     1.51470
O315        O  0.50165832  0.36171317  0.61527921    -1.42520
C316        C  0.47994801  0.22634954  0.62192326     1.09030
C317        C  0.62510644  0.40005322  0.63314385     1.09120
C318        C  0.55739175  0.36142609  0.69415067     1.09060
C319        C  0.55763422  0.30600411  0.55112415     1.09030
O320        O  0.45800232  0.85573891  0.70029715    -0.80590
O321        O  0.51480042  0.91016236  0.55964576    -0.80610
O322        O  0.51622258  0.98761166  0.64739660    -0.80620
O323        O  0.38576433  0.86814300  0.62954342    -0.80560
O324        O  0.53601602  0.96975498  0.60036080    -0.80680
O325        O  0.40374983  0.79917825  0.65924509    -0.80600
O326        O  0.42898936  0.91551970  0.57519084    -0.80590
O327        O  0.45308931  0.93285519  0.68041273    -0.80630
C328        C  0.44281946  0.90238032  0.70294571     1.09100
C329        C  0.46672938  0.92778309  0.55547538     1.08990
C330        C  0.52014991  0.00213405  0.62031611     1.09120
C331        C  0.36859362  0.83010194  0.64638337     1.09000
O332        O  0.51564673  0.76612795  0.63721185    -0.80590
O333        O  0.62019006  0.90732861  0.58750757    -0.80670
O334        O  0.55956391  0.92954269  0.69396694    -0.80600
O335        O  0.48085056  0.81870165  0.56349303    -0.80580
O336        O  0.55910886  0.81102516  0.58627755    -0.80630
O337        O  0.56522204  0.84079190  0.68438069    -0.80600
O338        O  0.43805443  0.76468201  0.61224708    -0.80560
O339        O  0.60403073  0.90831408  0.63851070    -0.80630
Co340      Co  0.48686384  0.81860804  0.66563194     1.51530
Co341      Co  0.54865468  0.88941028  0.59929122     1.51690
Co342      Co  0.52381364  0.91387991  0.65847806     1.51570
Co343      Co  0.43367820  0.84407780  0.59717727     1.51470
O344        O  0.48765276  0.87305526  0.62700437    -1.42520
C345        C  0.47997439  0.74004792  0.62265194     1.09030
C346        C  0.63767715  0.90826865  0.61486223     1.09120
C347        C  0.57879060  0.88362860  0.70062633     1.09060
C348        C  0.52457190  0.79304023  0.56699518     1.09030
O349        O  0.98376567  0.23465605  0.30848672    -0.80590
O350        O  0.94994534  0.11641447  0.45098039    -0.80610
O351        O  0.88866546  0.08725808  0.35516117    -0.80620
O352        O  0.02938825  0.26128339  0.39331131    -0.80560
O353        O  0.88985276  0.13049954  0.39773269    -0.80680
O354        O  0.95675119  0.24413961  0.36864602    -0.80600
O355        O  0.96251248  0.19253291  0.42809544    -0.80590
O356        O  0.94777843  0.15072282  0.31125376    -0.80630
C357        C  0.95100159  0.19833054  0.29852449     1.09100
C358        C  0.95470597  0.16726423  0.45281859     1.08990
C359        C  0.86297291  0.11073880  0.37640638     1.09120
C360        C  0.98618577  0.27850829  0.38176179     1.09000
O361        O  0.08311600  0.22309759  0.34962635    -0.80590
O362        O  0.92869017  0.01961304  0.40293207    -0.80670
O363        O  0.03881497  0.07652120  0.31790565    -0.80600
O364        O  0.05897276  0.12692244  0.43972478    -0.80580
O365        O  0.02659461  0.05605934  0.41807724    -0.80630
O366        O  0.05558787  0.16176433  0.31501122    -0.80600
O367        O  0.10727568  0.18094653  0.39254775    -0.80560
O368        O  0.98458990  0.01886104  0.36299844    -0.80630
Co369      Co  0.00312462  0.19434713  0.34389178     1.51530
Co370      Co  0.95927714  0.09472273  0.40682132     1.51690
Co371      Co  0.96871745  0.08821677  0.34079595     1.51570
Co372      Co  0.03652836  0.18622090  0.41044818     1.51470
O373        O  0.00525173  0.13709941  0.37571096    -1.42520
C374        C  0.11952525  0.20001084  0.36652563     1.09030
C375        C  0.95610805  0.99315600  0.38330067     1.09120
C376        C  0.06481287  0.11561554  0.30577348     1.09060
C377        C  0.05634562  0.07628147  0.43819797     1.09030
O378        O  0.01136383  0.59008520  0.29282000    -0.80590
O379        O  0.02923799  0.57624110  0.41554926    -0.80610
O380        O  0.10047175  0.71053322  0.35332561    -0.80620
O381        O  0.93165511  0.54319060  0.38146960    -0.80560
O382        O  0.10226774  0.65149051  0.39130036    -0.80680
O383        O  0.97121591  0.52510429  0.33757166    -0.80600
O384        O  0.94181419  0.56898359  0.41150748    -0.80590
O385        O  0.08347703  0.63749840  0.30757458    -0.80630
C386        C  0.06230172  0.60299459  0.29015175     1.09100
C387        C  0.98460231  0.55616229  0.42632457     1.08990
C388        C  0.12665863  0.68438589  0.37335396     1.09120
C389        C  0.95549366  0.50941527  0.36353685     1.09000
O390        O  0.87028669  0.58989668  0.34479216    -0.80590
O391        O  0.01736548  0.73291421  0.38981967    -0.80670
O392        O  0.99093072  0.69392333  0.28773800    -0.80600
O393        O  0.94160082  0.67031560  0.42156692    -0.80580
O394        O  0.02787988  0.67147152  0.43782354    -0.80630
O395        O  0.91878312  0.66410415  0.31016441    -0.80600
O396        O  0.85754820  0.62632332  0.39032949    -0.80560
O397        O  0.99092668  0.74909585  0.34294644    -0.80630
Co398      Co  0.94866213  0.59521346  0.32412297     1.51530
Co399      Co  0.02238185  0.65128175  0.39754438     1.51690
Co400      Co  0.03713657  0.69214245  0.32629091     1.51570
Co401      Co  0.93155010  0.62909733  0.37936669     1.51470
O402        O  0.00170266  0.63165759  0.35540508    -1.42520
C403        C  0.83852090  0.60443468  0.36703207     1.09030
C404        C  0.99749209  0.76451874  0.36983518     1.09120
C405        C  0.93972817  0.68757590  0.28741548     1.09060
C406        C  0.97778339  0.68132293  0.44246666     1.09030
O407        O  0.40821298  0.10815118  0.32223193    -0.80590
O408        O  0.45585351  0.04709995  0.42274668    -0.80610
O409        O  0.49482039  0.99770227  0.36757161    -0.80620
O410        O  0.36856457  0.14669093  0.39174206    -0.80560
O411        O  0.54132923  0.00992497  0.40932161    -0.80680
O412        O  0.38826137  0.19947769  0.35300146    -0.80600
O413        O  0.41959509  0.11015901  0.44547778    -0.80590
O414        O  0.47571762  0.05218409  0.31441900    -0.80630
C415        C  0.42873895  0.06966813  0.30781206     1.09100
C416        C  0.43147619  0.06167109  0.44593518     1.08990
C417        C  0.51728956  0.97789818  0.39075623     1.09120
C418        C  0.35270441  0.17683051  0.37017414     1.09000
O419        O  0.50561273  0.22446585  0.35105042    -0.80590
O420        O  0.59366732  0.12433581  0.39854296    -0.80670
O421        O  0.57238403  0.11950954  0.32836675    -0.80600
O422        O  0.51337780  0.17842770  0.42925372    -0.80580
O423        O  0.53990331  0.10717671  0.45417043    -0.80630
O424        O  0.50728944  0.15323163  0.30269359    -0.80600
O425        O  0.45216460  0.23437977  0.39095846    -0.80560
O426        O  0.59989834  0.05353367  0.37160117    -0.80630
Co427      Co  0.45695333  0.16516325  0.33769907     1.51530
Co428      Co  0.52127330  0.09064146  0.41104720     1.51690
Co429      Co  0.53023559  0.06045752  0.34795542     1.51570
Co430      Co  0.44239742  0.15983719  0.40926714     1.51470
O431        O  0.48189779  0.11320673  0.37352305    -1.42520
C432        C  0.48718964  0.25362293  0.37188914     1.09030
C433        C  0.62380068  0.09122799  0.38515424     1.09120
C434        C  0.55564780  0.13776337  0.30381024     1.09060
C435        C  0.53033682  0.15770956  0.45403440     1.09030
O436        O  0.43226471  0.65129846  0.32129610    -0.80590
O437        O  0.47232813  0.54539040  0.44710295    -0.80610
O438        O  0.46786567  0.51509834  0.36305626    -0.80620
O439        O  0.37146508  0.63630175  0.38196151    -0.80560
O440        O  0.52899269  0.50764315  0.39940199    -0.80680
O441        O  0.40304621  0.71255385  0.36548317    -0.80600
O442        O  0.39226397  0.56370245  0.42639321    -0.80590
O443        O  0.46903027  0.57504570  0.30987988    -0.80630
C444        C  0.43942370  0.61508930  0.30192526     1.09100
C445        C  0.42105822  0.53678103  0.44486316     1.08990
C446        C  0.49702278  0.48596405  0.37981934     1.09120
C447        C  0.36189574  0.68170776  0.37147441     1.09000
O448        O  0.51660309  0.71850502  0.38762901    -0.80590
O449        O  0.59082653  0.61243703  0.39823051    -0.80670
O450        O  0.52974008  0.57739093  0.31482357    -0.80600
O451        O  0.44857853  0.64088666  0.45924614    -0.80580
O452        O  0.53473777  0.64636511  0.44696147    -0.80630
O453        O  0.55230680  0.65969800  0.33024884    -0.80600
O454        O  0.43963338  0.72154228  0.41539730    -0.80560
O455        O  0.57045049  0.56451399  0.35878847    -0.80630
Co456      Co  0.47883952  0.68015634  0.35546460     1.51530
Co457      Co  0.52960168  0.58110486  0.42076967     1.51690
Co458      Co  0.49012601  0.58854089  0.35304141     1.51570
Co459      Co  0.41489777  0.63977438  0.41850837     1.51470
O460        O  0.47768217  0.61833765  0.39150697    -1.42520
C461        C  0.48392119  0.74487641  0.40433499     1.09030
C462        C  0.60588189  0.58779229  0.37521282     1.09120
C463        C  0.55970303  0.62011978  0.31098319     1.09060
C464        C  0.49591997  0.65692150  0.46530205     1.09030
C465        C  0.49152302  0.89726218  0.42287484    -0.06230
C466        C  0.51343094  0.91833346  0.39533974    -0.00300
C467        C  0.52337658  0.88251258  0.37097463    -0.08880
C468        C  0.51499279  0.82701082  0.37604851    -0.06250
C469        C  0.49263328  0.80527831  0.40354749    -0.00320
C470        C  0.47859848  0.84182889  0.42696457    -0.08780
C471        C  0.44885200  0.82338641  0.45567626     0.61590
H472        H  0.48080763  0.92517480  0.44041724     0.12290
H473        H  0.52300644  0.80005775  0.35740554     0.12300
C474        C  0.54044763  0.90214075  0.33904984     0.61830
F475        F  0.44111190  0.86466460  0.47604429    -0.23340
F476        F  0.47936923  0.78464780  0.46986502    -0.20670
F477        F  0.39782291  0.80312874  0.44815230    -0.20350
F478        F  0.58350608  0.93840651  0.34071528    -0.20400
F479        F  0.49671732  0.92654154  0.32501787    -0.20720
F480        F  0.55728002  0.86050878  0.32069170    -0.23390
C481        C  0.53780281  0.39546553  0.38872005    -0.06230
C482        C  0.49653422  0.42631704  0.37495006    -0.00300
C483        C  0.45691064  0.39924734  0.35655309    -0.08880
C484        C  0.45744570  0.34275264  0.35552783    -0.06250
C485        C  0.49662129  0.31249657  0.37066286    -0.00320
C486        C  0.53934786  0.33899007  0.38611680    -0.08780
C487        C  0.58646561  0.30776501  0.39935945     0.61590
H488        H  0.56881962  0.41574544  0.40189383     0.12290
H489        H  0.42670277  0.32111789  0.34286212     0.12300
C490        C  0.41410964  0.42831673  0.33763037     0.61830
F491        F  0.62650394  0.34150573  0.41099888    -0.23340
F492        F  0.61039567  0.27729100  0.37678994    -0.20670
F493        F  0.56741962  0.27405813  0.42264718    -0.20350
F494        F  0.44008010  0.46131742  0.31590273    -0.20400
F495        F  0.38062095  0.45846448  0.35618619    -0.20720
F496        F  0.38047317  0.39293598  0.32215976    -0.23390
C497        C  0.75480288  0.54798138  0.37181190    -0.06230
C498        C  0.77911500  0.59829241  0.36496837    -0.00300
C499        C  0.74637322  0.64385932  0.35964122    -0.08880
C500        C  0.68931588  0.63728984  0.36098497    -0.06250
C501        C  0.66469340  0.58739133  0.36853382    -0.00320
C502        C  0.69747447  0.54200756  0.37464444    -0.08780
C503        C  0.67230090  0.48881084  0.38573218     0.61590
H504        H  0.78117641  0.51430131  0.37657478     0.12290
H505        H  0.66326530  0.67168562  0.35749727     0.12300
C506        C  0.77161572  0.69959112  0.35379773     0.61830
F507        F  0.71169474  0.45027898  0.39068141    -0.23340
F508        F  0.63648078  0.46940588  0.36427847    -0.20670
F509        F  0.64418339  0.49619435  0.41297206    -0.20350
F510        F  0.80827804  0.69831326  0.32949318    -0.20400
F511        F  0.79895933  0.71638888  0.37946930    -0.20720
F512        F  0.73234604  0.73733800  0.34694947    -0.23390
C513        C  0.21489971  0.69268458  0.34600148    -0.06230
C514        C  0.18711146  0.69189858  0.37425688    -0.00300
C515        C  0.21776878  0.69561887  0.40150083    -0.08880
C516        C  0.27556460  0.69994572  0.39913584    -0.06250
C517        C  0.30339211  0.69723413  0.37083962    -0.00320
C518        C  0.27227361  0.69247245  0.34405725    -0.08780
C519        C  0.29983935  0.68220679  0.31395190     0.61590
H520        H  0.19121776  0.68862169  0.32539772     0.12290
H521        H  0.29986559  0.70077373  0.41964419     0.12300
C522        C  0.19039175  0.69280087  0.43289752     0.61830
F523        F  0.26445011  0.68614282  0.28960959    -0.23340
F524        F  0.32127962  0.63113699  0.31458629    -0.20670
F525        F  0.34111473  0.71995433  0.30993521    -0.20350
F526        F  0.16844821  0.64174117  0.43825403    -0.20400
F527        F  0.14911578  0.73000767  0.43467235    -0.20720
F528        F  0.22723269  0.70359147  0.45585160    -0.23390
C529        C  0.71034585  0.14635734  0.38425703    -0.06230
C530        C  0.68525434  0.09512102  0.38480571    -0.00300
C531        C  0.71942334  0.04913629  0.38307439    -0.08880
C532        C  0.77666896  0.05657913  0.37962874    -0.06250
C533        C  0.80156782  0.10767558  0.37854345    -0.00320
C534        C  0.76781264  0.15321032  0.38109341    -0.08780
C535        C  0.79273551  0.20874899  0.37936048     0.61590
H536        H  0.68441256  0.18121390  0.38553740     0.12290
H537        H  0.80281900  0.02214454  0.37793301     0.12300
C538        C  0.69644424  0.99200646  0.38446374     0.61830
F539        F  0.75350249  0.24839486  0.37942493    -0.23340
F540        F  0.82356028  0.21395146  0.35262554    -0.20670
F541        F  0.82573696  0.21576260  0.40435684    -0.20350
F542        F  0.67240016  0.98063367  0.35701024    -0.20400
F543        F  0.65839748  0.98597944  0.40810060    -0.20720
F544        F  0.73684146  0.95455585  0.38928669    -0.23390
C545        C  0.21196250  0.23694874  0.35176572    -0.06230
C546        C  0.17776185  0.19204045  0.35781723    -0.00300
C547        C  0.20224398  0.14160173  0.36497186    -0.08880
C548        C  0.25887601  0.13946253  0.36911871    -0.06250
C549        C  0.29313464  0.18449422  0.36453880    -0.00320
C550        C  0.26968533  0.23397586  0.35462054    -0.08780
C551        C  0.30469642  0.28418865  0.34870616     0.61590
H552        H  0.19289678  0.27507132  0.34676895     0.12290
H553        H  0.27676866  0.10141865  0.37581616     0.12300
C554        C  0.17075547  0.08873382  0.37031544     0.61830
F555        F  0.27319628  0.32892172  0.34282959    -0.23340
F556        F  0.33841124  0.27669044  0.32351262    -0.20670
F557        F  0.33610360  0.29474513  0.37402908    -0.20350
F558        F  0.11623267  0.09140459  0.36279239    -0.20400
F559        F  0.17409255  0.07350110  0.40077727    -0.20720
F560        F  0.19401792  0.04918974  0.35268853    -0.23390
C561        C  0.01713572  0.91460709  0.38510389    -0.06230
C562        C  0.96301486  0.93324567  0.38506590    -0.00300
C563        C  0.91973406  0.89533616  0.38083361    -0.08880
C564        C  0.93210260  0.84014139  0.37728461    -0.06250
C565        C  0.98641508  0.82192608  0.37722506    -0.00320
C566        C  0.02967590  0.85990240  0.38121697    -0.08780
C567        C  0.08921916  0.84327938  0.37949823     0.61590
H568        H  0.05014685  0.94407780  0.38666600     0.12290
H569        H  0.89950623  0.81093914  0.37351073     0.12300
C570        C  0.86133740  0.91381832  0.37802468     0.61830
F571        F  0.12503488  0.88616207  0.38407109    -0.23340
F572        F  0.10056981  0.82264807  0.35101890    -0.20670
F573        F  0.09883842  0.80457408  0.40167234    -0.20350
F574        F  0.85799942  0.94958517  0.35355838    -0.20400
F575        F  0.84566387  0.93887258  0.40462954    -0.20720
F576        F  0.82517378  0.87132065  0.37320682    -0.23390
C577        C  0.02204382  0.37154459  0.37165945    -0.06230
C578        C  0.97684678  0.33827301  0.37990080    -0.00300
C579        C  0.92624251  0.36322776  0.38662818    -0.08880
C580        C  0.92128410  0.41944963  0.38241081    -0.06250
C581        C  0.96559140  0.45207034  0.37240629    -0.00320
C582        C  0.01749178  0.42780039  0.36758343    -0.08780
C583        C  0.06818055  0.46057964  0.35765179     0.61590
H584        H  0.06097652  0.35265494  0.36714692     0.12770
H585        H  0.88159138  0.43771349  0.38491135     0.12300
C586        C  0.87679262  0.33051914  0.39672733     0.61830
F587        F  0.11553404  0.43090448  0.35999396    -0.23340
F588        F  0.07413122  0.50498192  0.37591543    -0.20670
F589        F  0.06365903  0.47734608  0.32753341    -0.20350
F590        F  0.89042297  0.29567852  0.42030611    -0.20400
F591        F  0.85915778  0.30245915  0.37187282    -0.20720
F592        F  0.83432248  0.36226617  0.40686541    -0.23390
C593        C  0.40435311  0.98502419  0.52264214    -0.06230
C594        C  0.45625151  0.96136053  0.52711559    -0.00300
C595        C  0.49755084  0.97010236  0.50391592    -0.08880
C596        C  0.48606846  0.00384240  0.47904690    -0.06250
C597        C  0.43530502  0.02793863  0.47458738    -0.00320
C598        C  0.39353463  0.01897361  0.49692698    -0.08780
C599        C  0.33811194  0.04456483  0.49329797     0.61590
H600        H  0.37206417  0.97681540  0.53937611     0.12290
H601        H  0.51802132  0.01169960  0.46237167     0.12300
C602        C  0.55390379  0.94381828  0.50398785     0.61830
F603        F  0.30187168  0.02889862  0.51658542    -0.23340
F604        F  0.31577514  0.02968236  0.46578121    -0.20670
F605        F  0.34414482  0.10000224  0.49369076    -0.20350
F606        F  0.54779613  0.88837531  0.50622756    -0.20400
F607        F  0.58447538  0.96287609  0.52799279    -0.20720
F608        F  0.58408760  0.95483529  0.47744926    -0.23390
C609        C  0.47389229  0.72054837  0.54297322    -0.06230
C610        C  0.52643220  0.74141418  0.54924673    -0.00300
C611        C  0.57052302  0.72333937  0.53082356    -0.08880
C612        C  0.55893428  0.69527141  0.50385865    -0.06250
C613        C  0.50481153  0.68500662  0.49461305    -0.00320
C614        C  0.46072817  0.70024926  0.51442358    -0.08780
C615        C  0.40007878  0.70508392  0.50579101     0.61590
H616        H  0.44031575  0.72978345  0.55833523     0.12290
H617        H  0.59272550  0.68196787  0.48965998     0.12300
C618        C  0.62931168  0.72761596  0.53996758     0.61830
F619        F  0.37055251  0.66018693  0.51558840    -0.23340
F620        F  0.39215763  0.71274417  0.47501101    -0.20670
F621        F  0.37719013  0.74937171  0.51960294    -0.20350
F622        F  0.63245019  0.73513786  0.57085812    -0.20400
F623        F  0.65495052  0.76936717  0.52373678    -0.20720
F624        F  0.65616346  0.68029074  0.53373917    -0.23390
C625        C  0.41779783  0.42055022  0.49577584    -0.06230
C626        C  0.43135262  0.44875869  0.52232464    -0.00300
C627        C  0.41817250  0.50413274  0.52391232    -0.08880
C628        C  0.39762162  0.52979597  0.49778980    -0.06250
C629        C  0.39617628  0.50387700  0.46967720    -0.00320
C630        C  0.40088419  0.44760045  0.46927353    -0.08780
C631        C  0.39262465  0.41567528  0.44072195     0.61590
H632        H  0.42455056  0.37770909  0.49470325     0.12290
H633        H  0.39314290  0.57290370  0.49764425     0.12300
C634        C  0.43104419  0.53791527  0.55144846     0.61830
F635        F  0.35477380  0.37450533  0.44657319    -0.23340
F636        F  0.44186038  0.39375361  0.43200345    -0.20670
F637        F  0.37351214  0.44729522  0.41703442    -0.20350
F638        F  0.48697899  0.54774326  0.55244308    -0.20400
F639        F  0.41337763  0.51145933  0.57774806    -0.20720
F640        F  0.40519071  0.58683475  0.55060693    -0.23390
C641        C  0.52704961  0.28456785  0.50120950    -0.06230
C642        C  0.56776244  0.27634323  0.52256804    -0.00300
C643        C  0.59913611  0.22884769  0.52079286    -0.08880
C644        C  0.58544959  0.18943680  0.49893283    -0.06250
C645        C  0.53991738  0.19536772  0.47984984    -0.00320
C646        C  0.50853966  0.24329748  0.48251426    -0.08780
C647        C  0.45291285  0.25303387  0.46835867     0.61590
H648        H  0.50356167  0.32109630  0.50237299     0.12290
H649        H  0.61080530  0.15430393  0.49660733     0.12300
C650        C  0.64918849  0.21998885  0.54001389     0.61830
F651        F  0.41725908  0.27321122  0.49009676    -0.23340
F652        F  0.42819236  0.20724806  0.45777773    -0.20670
F653        F  0.45882392  0.29029411  0.44474826    -0.20350
F654        F  0.64139453  0.17404108  0.55790613    -0.20400
F655        F  0.66033397  0.26315017  0.55861739    -0.20720
F656        F  0.69429312  0.21312205  0.52099159    -0.23390
C657        C  0.45760567  0.58710319  0.62253548    -0.06230
C658        C  0.51160785  0.56827295  0.61865717    -0.00300
C659        C  0.55478959  0.60691533  0.61475857    -0.08880
C660        C  0.54217106  0.66231936  0.61554766    -0.06250
C661        C  0.48798899  0.68077287  0.61889552    -0.00320
C662        C  0.44467299  0.64218387  0.62171695    -0.08780
C663        C  0.38508504  0.65847334  0.62505130     0.61590
H664        H  0.42471556  0.55787923  0.62631000     0.12290
H665        H  0.57501707  0.69208316  0.61383230     0.12300
C666        C  0.61404878  0.59020159  0.61112472     0.61830
F667        F  0.34997340  0.61433545  0.62876772    -0.23340
F668        F  0.36932892  0.68647314  0.59915231    -0.20670
F669        F  0.37871970  0.69041258  0.65033951    -0.20350
F670        F  0.62064459  0.56249770  0.58423427    -0.20400
F671        F  0.62828844  0.55763237  0.63560314    -0.20720
F672        F  0.64983565  0.63412348  0.61004533    -0.23390
C673        C  0.44718284  0.13369828  0.61540161    -0.06230
C674        C  0.49187326  0.16889395  0.61872279    -0.00300
C675        C  0.54577597  0.14847356  0.61870069    -0.08880
C676        C  0.55327143  0.09353807  0.61421638    -0.06250
C677        C  0.50857408  0.05815383  0.61312975    -0.00320
C678        C  0.45437172  0.07802788  0.61431572    -0.08780
C679        C  0.40424939  0.04107638  0.61491315     0.61590
H680        H  0.40627694  0.15003656  0.61552255     0.12290
H681        H  0.59402839  0.07683492  0.61490355     0.12300
C682        C  0.59481325  0.18303206  0.62600243     0.61830
F683        F  0.35587249  0.06917923  0.61734377    -0.23340
F684        F  0.40593769  0.00525833  0.63934388    -0.20670
F685        F  0.40294389  0.01319915  0.58818702    -0.20350
F686        F  0.59115893  0.19671453  0.65638975    -0.20400
F687        F  0.59576052  0.22871436  0.60760576    -0.20720
F688        F  0.64368150  0.15642239  0.62154684    -0.23390
C689        C  0.07524228  0.98453777  0.45900440    -0.06230
C690        C  0.07945259  0.04057058  0.46273045    -0.00300
C691        C  0.09527429  0.05947504  0.49189676    -0.08880
C692        C  0.09038943  0.02404476  0.51728602    -0.06250
C693        C  0.07683561  0.96947392  0.51399933    -0.00320
C694        C  0.07555543  0.94826470  0.48414914    -0.08780
C695        C  0.07112708  0.88831259  0.47873423     0.61590
H696        H  0.06772155  0.96943787  0.43646534     0.12290
H697        H  0.09453403  0.03952920  0.54015443     0.12300
C698        C  0.11323853  0.11694251  0.49750393     0.61830
F699        F  0.07376711  0.87675945  0.44800380    -0.23340
F700        F  0.02186474  0.86837298  0.49023876    -0.20670
F701        F  0.11382096  0.86235967  0.49288257    -0.20350
F702        F  0.06768048  0.14820166  0.50073336    -0.20400
F703        F  0.14620679  0.13651190  0.47365398    -0.20720
F704        F  0.14321551  0.12061246  0.52403109    -0.23390
C705        C  0.92760171  0.75316196  0.47026238    -0.06230
C706        C  0.96327502  0.70915761  0.47112502    -0.00300
C707        C  0.99077318  0.69703993  0.49863665    -0.08880
C708        C  0.98645012  0.73227989  0.52277553    -0.06250
C709        C  0.95641779  0.78004582  0.52102394    -0.00320
C710        C  0.92317020  0.78888580  0.49510076    -0.08780
C711        C  0.88319303  0.83486230  0.49360127     0.61590
H712        H  0.90582918  0.76131048  0.44935103     0.12290
H713        H  0.01029339  0.72359399  0.54282928     0.12300
C714        C  0.02536257  0.64729872  0.50309507     0.61830
F715        F  0.84887807  0.83040642  0.46883071    -0.23340
F716        F  0.91122168  0.88357937  0.49088889    -0.20670
F717        F  0.85081722  0.83433976  0.51986430    -0.20350
F718        F  0.07503322  0.65315724  0.48760192    -0.20400
F719        F  0.99676173  0.60343707  0.49265608    -0.20720
F720        F  0.03656542  0.63710752  0.53357532    -0.23390
C721        C  0.78531749  0.86413986  0.61019551    -0.06230
C722        C  0.81296952  0.90592283  0.62469670    -0.00300
C723        C  0.78177297  0.94508576  0.64050185    -0.08880
C724        C  0.72415837  0.94488037  0.63706307    -0.06250
C725        C  0.69762126  0.90575920  0.61967263    -0.00320
C726        C  0.72839149  0.86283157  0.60806637    -0.08780
C727        C  0.70086765  0.81501794  0.59405350     0.61590
H728        H  0.80898748  0.83259264  0.59982073     0.12290
H729        H  0.69946608  0.97559765  0.64748201     0.12300
C730        C  0.80819317  0.98672009  0.66071636     0.61830
F731        F  0.73715999  0.77427621  0.58765849    -0.23340
F732        F  0.67745754  0.83139530  0.56707191    -0.20670
F733        F  0.66123584  0.79460666  0.61430890    -0.20350
F734        F  0.84473912  0.01839677  0.64381851    -0.20400
F735        F  0.83545320  0.96116053  0.68411777    -0.20720
F736        F  0.76989186  0.02020153  0.67376146    -0.23390
C737        C  0.21433338  0.82993336  0.65995903    -0.06230
C738        C  0.19751340  0.84045992  0.62969554    -0.00300
C739        C  0.23668440  0.83513897  0.60545093    -0.08880
C740        C  0.29063990  0.82166603  0.61273296    -0.06250
C741        C  0.30891090  0.81817176  0.64299743    -0.00320
C742        C  0.26980929  0.82001953  0.66702948    -0.08780
C743        C  0.28713665  0.81296780  0.69975420     0.61590
H744        H  0.18411277  0.83170325  0.67825175     0.12290
H745        H  0.32109000  0.81886609  0.59454614     0.12300
C746        C  0.22326795  0.84485992  0.57188664     0.61830
F747        F  0.24272629  0.81208556  0.71985015    -0.23340
F748        F  0.32181138  0.85504911  0.70729029    -0.20670
F749        F  0.31413222  0.76475651  0.70298700    -0.20350
F750        F  0.20918964  0.89807248  0.56720097    -0.20400
F751        F  0.18054314  0.81116391  0.56346678    -0.20720
F752        F  0.26743656  0.83501698  0.55262406    -0.23390
C753        C  0.92721618  0.46929342  0.49519002    -0.06230
C754        C  0.97458645  0.46146488  0.51212951    -0.00300
C755        C  0.02590008  0.48098501  0.49902552    -0.08880
C756        C  0.02729710  0.50397704  0.46912046    -0.06250
C757        C  0.97944143  0.51707228  0.45353393    -0.00320
C758        C  0.92777746  0.50014180  0.46750443    -0.08780
C759        C  0.87252039  0.51797697  0.45550303     0.61590
H760        H  0.88874980  0.45543833  0.50550717     0.12290
H761        H  0.06595015  0.51802646  0.45913445     0.12300
C762        C  0.07914839  0.48284784  0.51691259     0.61830
F763        F  0.82899138  0.49863440  0.47347750    -0.23340
F764        F  0.86466394  0.49920639  0.42645238    -0.20670
F765        F  0.87021342  0.57358170  0.45534009    -0.20350
F766        F  0.09009027  0.43336079  0.52994076    -0.20400
F767        F  0.07504530  0.52076779  0.53953278    -0.20720
F768        F  0.12398085  0.49739848  0.49856981    -0.23390
C769        C  0.95620910  0.22495709  0.53325678    -0.06230
C770        C  0.99612071  0.26681493  0.52937754    -0.00300
C771        C  0.02573243  0.27031682  0.50128159    -0.08880
C772        C  0.01086276  0.23532476  0.47789652    -0.06250
C773        C  0.96761763  0.19689423  0.48100635    -0.00320
C774        C  0.93963814  0.19146262  0.50935613    -0.08780
C775        C  0.89006329  0.15474399  0.51547292     0.61590
H776        H  0.93476049  0.22021479  0.55483624     0.12290
H777        H  0.03313573  0.23832423  0.45635043     0.12300
C778        C  0.07089757  0.31193511  0.49481584     0.61830
F779        F  0.90293544  0.11654981  0.53745275    -0.23340
F780        F  0.87195071  0.12861968  0.48987790    -0.20670
F781        F  0.84706263  0.18500479  0.52633509    -0.20350
F782        F  0.11035361  0.30896387  0.51711936    -0.20400
F783        F  0.04831774  0.36240365  0.49404103    -0.20720
F784        F  0.09699903  0.30447046  0.46691475    -0.23390
C785        C  0.99423028  0.59393697  0.61309706    -0.06230
C786        C  0.04566544  0.56942027  0.61463352    -0.00300
C787        C  0.09336490  0.60203523  0.61750350    -0.08880
C788        C  0.08752258  0.65835675  0.61936447    -0.06250
C789        C  0.03573672  0.68279436  0.61888589    -0.00320
C790        C  0.98823127  0.65002695  0.61496613    -0.08780
C791        C  0.93148142  0.67365452  0.61208934     0.61590
H792        H  0.95819536  0.56822888  0.61088554     0.12290
H793        H  0.12361292  0.68389673  0.62175566     0.12300
C794        C  0.14971027  0.57741737  0.61978619     0.61830
F795        F  0.89221798  0.63485863  0.60537220    -0.23340
F796        F  0.93158954  0.71219454  0.58896243    -0.20670
F797        F  0.91614006  0.69679657  0.63922641    -0.20350
F798        F  0.16206586  0.55084795  0.59312581    -0.20400
F799        F  0.15041585  0.54128812  0.64420137    -0.20720
F800        F  0.19031519  0.61606776  0.62414584    -0.23390
C801        C  0.92637827  0.10461927  0.61483263    -0.06230
C802        C  0.97627569  0.07948761  0.62193066    -0.00300
C803        C  0.02292220  0.11306635  0.62677909    -0.08880
C804        C  0.01752348  0.16983970  0.62496114    -0.06250
C805        C  0.96699534  0.19473095  0.61929050    -0.00320
C806        C  0.92009645  0.16124211  0.61520116    -0.08780
C807        C  0.86287414  0.18458749  0.61430152     0.61590
H808        H  0.89138724  0.07938824  0.60969854     0.12290
H809        H  0.05297263  0.19556246  0.62861922     0.12300
C810        C  0.07861053  0.08918119  0.63292114     0.61830
F811        F  0.82261922  0.14473025  0.61288238    -0.23340
F812        F  0.85743250  0.21840382  0.58923102    -0.20670
F813        F  0.85353824  0.21345186  0.64053602    -0.20350
F814        F  0.09207740  0.05365884  0.61011109    -0.20400
F815        F  0.07733760  0.06224183  0.66084453    -0.20720
F816        F  0.11956227  0.12838479  0.63370622    -0.23390
C817        C  0.76190552  0.33322559  0.64563037    -0.06230
C818        C  0.79754072  0.37454037  0.63602111    -0.00300
C819        C  0.77727835  0.42774725  0.63386137    -0.08880
C820        C  0.72020432  0.43632223  0.63773113    -0.06250
C821        C  0.68295914  0.39335527  0.64350524    -0.00320
C822        C  0.70511514  0.34130694  0.64891974    -0.08780
C823        C  0.67135228  0.29123153  0.65575693     0.61590
H824        H  0.77782781  0.29290328  0.64784681     0.12290
H825        H  0.70382190  0.47590656  0.63340081     0.12300
C826        C  0.81587446  0.47491867  0.62649962     0.61830
F827        F  0.68160625  0.27330574  0.68517474    -0.23340
F828        F  0.68705714  0.25207968  0.63555501    -0.20670
F829        F  0.61597860  0.29910778  0.65297797    -0.20350
F830        F  0.83892889  0.46944274  0.59768488    -0.20400
F831        F  0.85717170  0.47642507  0.64778331    -0.20720
F832        F  0.78904390  0.52354594  0.62721810    -0.23390
C833        C  0.23003526  0.41041242  0.62391696    -0.06230
C834        C  0.19144780  0.36820700  0.62653465    -0.00300
C835        C  0.20980636  0.31412283  0.62598980    -0.08880
C836        C  0.26674717  0.30456015  0.62590027    -0.06250
C837        C  0.30520002  0.34679419  0.62172505    -0.00320
C838        C  0.28617075  0.40047166  0.61912754    -0.08780
C839        C  0.32344028  0.44644157  0.60807659     0.61590
H840        H  0.21507319  0.45113600  0.62213891     0.12290
H841        H  0.28152416  0.26369447  0.62619096     0.12300
C842        C  0.17021333  0.26673631  0.62221168     0.61830
F843        F  0.29915802  0.49601957  0.61139639    -0.23340
F844        F  0.33484886  0.43951497  0.57737378    -0.20670
F845        F  0.37182127  0.44717053  0.62406446    -0.20350
F846        F  0.15328503  0.26542539  0.59223159    -0.20400
F847        F  0.12454536  0.27100052  0.64102883    -0.20720
F848        F  0.19484938  0.21832195  0.62907803    -0.23390
C849        C  0.70785399  0.87993496  0.74957996    -0.06230
C850        C  0.69260774  0.91452268  0.77342109    -0.00300
C851        C  0.63796906  0.93307001  0.77448571    -0.08880
C852        C  0.60185106  0.91840767  0.75116993    -0.06250
C853        C  0.61711102  0.88458395  0.72704806    -0.00320
C854        C  0.67040067  0.86329971  0.72688708    -0.08780
C855        C  0.68659567  0.82217819  0.70353513     0.61590
H856        H  0.74855611  0.86371531  0.74976761     0.12290
H857        H  0.56051873  0.93374646  0.75150859     0.12300
C858        C  0.61748004  0.96857659  0.80007771     0.61830
F859        F  0.73994089  0.80590955  0.70708008    -0.23340
F860        F  0.68195025  0.84366144  0.67452135    -0.20670
F861        F  0.65241301  0.77732360  0.70662873    -0.20350
F862        F  0.65289636  0.01203447  0.80328924    -0.20400
F863        F  0.61415351  0.93958440  0.82729444    -0.20720
F864        F  0.56587196  0.98839855  0.79427321    -0.23390
C865        C  0.83499523  0.79608677  0.74955968    -0.06230
C866        C  0.84691828  0.82772056  0.77512463    -0.00300
C867        C  0.88457265  0.87132966  0.77005824    -0.08880
C868        C  0.89316239  0.89201327  0.74086514    -0.06250
C869        C  0.88961498  0.85813123  0.71601538    -0.00320
C870        C  0.86104122  0.80764472  0.72055295    -0.08780
C871        C  0.85992940  0.76576412  0.69598805     0.61590
H872        H  0.80790705  0.76138191  0.75274824     0.12290
H873        H  0.91524562  0.93021874  0.73875824     0.12300
C874        C  0.92666241  0.88947871  0.79244591     0.61830
F875        F  0.82721976  0.72166357  0.70439685    -0.23340
F876        F  0.91266307  0.74794005  0.69111242    -0.20670
F877        F  0.83987794  0.78765360  0.66920927    -0.20350
F878        F  0.93011369  0.85273106  0.81609931    -0.20400
F879        F  0.91387263  0.94022382  0.80196459    -0.20720
F880        F  0.97827703  0.89293214  0.77878870    -0.23390
C881        C  0.62625155  0.40469056  0.72781913    -0.06230
C882        C  0.59232325  0.35932768  0.72193123    -0.00300
C883        C  0.59013573  0.31625559  0.74367485    -0.08880
C884        C  0.62168194  0.32062759  0.77008107    -0.06250
C885        C  0.65456731  0.36621106  0.77634696    -0.00320
C886        C  0.65746827  0.40890646  0.75460772    -0.08780
C887        C  0.69516552  0.45724282  0.75879650     0.61590
H888        H  0.62810749  0.43751767  0.71123811     0.12290
H889        H  0.62109941  0.28739242  0.78629966     0.12300
C890        C  0.55500908  0.26560741  0.73969375     0.61830
F891        F  0.69453948  0.49253036  0.73396217    -0.23340
F892        F  0.74825190  0.43997285  0.76213676    -0.20670
F893        F  0.67918114  0.48502673  0.78442768    -0.20350
F894        F  0.56082498  0.22881051  0.76351462    -0.20400
F895        F  0.57026547  0.24048744  0.71305391    -0.20720
F896        F  0.50015618  0.27862405  0.73868377    -0.23390
C897        C  0.84684407  0.33378568  0.76765585    -0.06230
C898        C  0.84859818  0.37970276  0.78561597    -0.00300
C899        C  0.87280228  0.42825840  0.77239480    -0.08880
C900        C  0.89689481  0.42690991  0.74270236    -0.06250
C901        C  0.89597941  0.38034845  0.72530069    -0.00320
C902        C  0.86791747  0.33347879  0.73761781    -0.08780
C903        C  0.86031808  0.28171422  0.71992777     0.61590
H904        H  0.82731779  0.29753733  0.77710425     0.12290
H905        H  0.91852389  0.46188211  0.73313675     0.12300
C906        C  0.87469803  0.48168597  0.78890016     0.61830
F907        F  0.81537147  0.25188337  0.73082104    -0.23340
F908        F  0.90632763  0.25033332  0.72274892    -0.20670
F909        F  0.85135544  0.29302098  0.68946907    -0.20350
F910        F  0.90221405  0.47582034  0.81594253    -0.20400
F911        F  0.82224637  0.49955383  0.79459533    -0.20720
F912        F  0.90198775  0.52167619  0.77189225    -0.23390
C913        C  0.81341486  0.60439568  0.87041028    -0.06230
C914        C  0.76296034  0.57669774  0.87053101    -0.00300
C915        C  0.71314484  0.60404929  0.87401734    -0.08880
C916        C  0.71549161  0.65963927  0.87683660    -0.06250
C917        C  0.76571284  0.68804672  0.87675786    -0.00320
C918        C  0.81582249  0.66053745  0.87325264    -0.08780
C919        C  0.87118324  0.68961090  0.87324444     0.61590
H920        H  0.85068664  0.58158428  0.86811576     0.12290
H921        H  0.67763148  0.68147487  0.87913557     0.12300
C922        C  0.65787248  0.57447579  0.87594081     0.61830
F923        F  0.91417680  0.65393247  0.87320770    -0.23340
F924        F  0.87545009  0.72068671  0.89904696    -0.20670
F925        F  0.87684417  0.72224085  0.84741366    -0.20350
F926        F  0.65821033  0.53610496  0.89923940    -0.20400
F927        F  0.64745543  0.54958792  0.84858753    -0.20720
F928        F  0.61516309  0.60898071  0.88186219    -0.23390
C929        C  0.74377062  0.15299807  0.84938626    -0.06230
C930        C  0.71944748  0.17214721  0.87646226    -0.00300
C931        C  0.70483297  0.13513396  0.90050609    -0.08880
C932        C  0.71862727  0.08101529  0.89698176    -0.06250
C933        C  0.74803384  0.06406868  0.87134301    -0.00320
C934        C  0.75950891  0.09965318  0.84667893    -0.08780
C935        C  0.78963252  0.08174910  0.81808736     0.61590
H936        H  0.75267920  0.18071900  0.83052505     0.12290
H937        H  0.70805938  0.05161263  0.91469998     0.12300
C938        C  0.67697771  0.15184437  0.93009409     0.61830
F939        F  0.79962046  0.12393948  0.79753409    -0.23340
F940        F  0.75866903  0.04316358  0.80362116    -0.20670
F941        F  0.83944719  0.06030427  0.82586196    -0.20350
F942        F  0.62715833  0.17497392  0.92385506    -0.20400
F943        F  0.71015510  0.18810003  0.94511327    -0.20720
F944        F  0.66683290  0.10840518  0.94977876    -0.23390
C945        C  0.13725395  0.90389438  0.72281416    -0.06230
C946        C  0.09478273  0.86506450  0.72318361    -0.00300
C947        C  0.08857807  0.82998048  0.74929157    -0.08880
C948        C  0.12510616  0.83574393  0.77378257    -0.06250
C949        C  0.16764777  0.87454504  0.77337300    -0.00320
C950        C  0.17428074  0.90887131  0.74708297    -0.08780
C951        C  0.22095506  0.94986479  0.74392278     0.61590
H952        H  0.14193003  0.93007525  0.70287124     0.12290
H953        H  0.12085994  0.80935825  0.79362756     0.12300
C954        C  0.04427411  0.78600905  0.75177052     0.61830
F955        F  0.22466676  0.97256982  0.71481625    -0.23340
F956        F  0.27028246  0.92535262  0.74970377    -0.20670
F957        F  0.21257071  0.99088966  0.76430235    -0.20350
F958        F  0.05566601  0.74589271  0.73124456    -0.20400
F959        F  0.99340693  0.80690863  0.74569307    -0.20720
F960        F  0.04122865  0.76260403  0.78072215    -0.23390
C961        C  0.42253429  0.90365368  0.78896777    -0.06230
C962        C  0.38801488  0.94680392  0.79397938    -0.00300
C963        C  0.38042471  0.98325532  0.76899142    -0.08880
C964        C  0.40090676  0.97000964  0.73944797    -0.06250
C965        C  0.42229721  0.91865476  0.73390362    -0.00320
C966        C  0.42854592  0.88305795  0.75964271    -0.08780
C967        C  0.43569615  0.82217684  0.75732081     0.61590
H968        H  0.43146686  0.87796269  0.80825927     0.12290
H969        H  0.39698518  0.99838110  0.72054837     0.12300
C970        C  0.35320169  0.03687528  0.77281489     0.61830
F971        F  0.42067776  0.79549170  0.78408348    -0.23340
F972        F  0.48977490  0.81075524  0.75043044    -0.20670
F973        F  0.40150473  0.80079464  0.73562520    -0.20350
F974        F  0.39076419  0.07769131  0.76561519    -0.20400
F975        F  0.33441296  0.04397988  0.80239240    -0.20720
F976        F  0.30957898  0.04089062  0.75321139    -0.23390
C977        C  0.54702982  0.85096799  0.89343297    -0.06230
C978        C  0.57866950  0.82973424  0.86950681    -0.00300
C979        C  0.55050646  0.80581800  0.84485801    -0.08880
C980        C  0.49232178  0.80798694  0.84440562    -0.06250
C981        C  0.46141289  0.83408893  0.86702185    -0.00320
C982        C  0.48973775  0.85198138  0.89339263    -0.08780
C983        C  0.46092957  0.87006740  0.92258091     0.61590
H984        H  0.56756520  0.86745376  0.91295198     0.12290
H985        H  0.47065771  0.78859537  0.82650742     0.12300
C986        C  0.58093590  0.77800916  0.81927040     0.61830
F987        F  0.49626496  0.87361904  0.94697203    -0.23340
F988        F  0.42021254  0.83302796  0.93109822    -0.20670
F989        F  0.43907593  0.92049674  0.91802278    -0.20350
F990        F  0.61580703  0.81442316  0.80417573    -0.20400
F991        F  0.61087151  0.73600637  0.83118457    -0.20720
F992        F  0.54548256  0.75685990  0.79802305    -0.23390
C993        C  0.97961092  0.86657890  0.86968702    -0.06230
C994        C  0.95699969  0.91781524  0.86468944    -0.00300
C995        C  0.99249325  0.96306481  0.86135659    -0.08880
C996        C  0.04959572  0.95502428  0.86107341    -0.06250
C997        C  0.07195034  0.90377630  0.86597867    -0.00320
C998        C  0.03651390  0.85855192  0.86988537    -0.08780
C999        C  0.05852698  0.80221529  0.87418530     0.61590
H1000       H  0.95181467  0.83259658  0.87385382     0.12290
H1001       H  0.07742922  0.98937500  0.85890712     0.12300
C1002       C  0.97029361  0.01962333  0.86089689     0.61830
F1003       F  0.01731044  0.76329531  0.87279816    -0.23340
F1004       F  0.08296645  0.79748311  0.90233147    -0.20670
F1005       F  0.09679588  0.79211100  0.85145199    -0.20350
F1006       F  0.93609628  0.02671006  0.88598647    -0.20400
F1007       F  0.94133948  0.02812593  0.83449049    -0.20720
F1008       F  0.01188530  0.05797760  0.86194111    -0.23390
C1009       C  0.17694831  0.37427381  0.75653360    -0.06230
C1010       C  0.18124566  0.42551050  0.76979445    -0.00300
C1011       C  0.14183331  0.46395666  0.76217254    -0.08880
C1012       C  0.10468871  0.45185795  0.73916817    -0.06250
C1013       C  0.10509063  0.40271060  0.72304417    -0.00320
C1014       C  0.14172638  0.36274953  0.73239845    -0.08780
C1015       C  0.14468965  0.30876929  0.71720411     0.61590
H1016       H  0.19833664  0.34124070  0.76665885     0.12290
H1017       H  0.07432821  0.48195928  0.73413479     0.12300
C1018       C  0.13323712  0.51584778  0.77940172     0.61830
F1019       F  0.18274704  0.27541216  0.73060153    -0.23340
F1020       F  0.16066071  0.31737999  0.68727085    -0.20670
F1021       F  0.09412582  0.28267809  0.71869076    -0.20350
F1022       F  0.13167733  0.55866794  0.75882700    -0.20400
F1023       F  0.17403761  0.52680836  0.80008969    -0.20720
F1024       F  0.08351292  0.51222731  0.79508299    -0.23390
C1025       C  0.43312251  0.38629025  0.74881399    -0.06230
C1026       C  0.40279550  0.40180668  0.72340607    -0.00300
C1027       C  0.34545217  0.39166640  0.72402366    -0.08880
C1028       C  0.32153588  0.36238241  0.74852090    -0.06250
C1029       C  0.35026462  0.34937250  0.77489403    -0.00320
C1030       C  0.40808862  0.36053153  0.77458147    -0.08780
C1031       C  0.44411660  0.34532809  0.80095694     0.61590
H1032       H  0.47722022  0.39272075  0.74789731     0.12290
H1033       H  0.27839473  0.35313916  0.74760166     0.12300
C1034       C  0.30681754  0.41268228  0.70016399     0.61830
F1035       F  0.49870362  0.34235763  0.79215786    -0.23340
F1036       F  0.42794777  0.29539551  0.81265344    -0.20670
F1037       F  0.44019921  0.38415050  0.82298502    -0.20350
F1038       F  0.28332350  0.36962549  0.68541033    -0.20400
F1039       F  0.33270284  0.44698131  0.67922362    -0.20720
F1040       F  0.26560837  0.44124309  0.71423857    -0.23390
C1041       C  0.45994465  0.31947287  0.87666028    -0.06230
C1042       C  0.43936758  0.36609280  0.89008430    -0.00300
C1043       C  0.47684595  0.40249956  0.90338356    -0.08880
C1044       C  0.53324430  0.39622514  0.89817527    -0.06250
C1045       C  0.55440296  0.35205495  0.88246632    -0.00320
C1046       C  0.51707724  0.31161446  0.87267980    -0.08780
C1047       C  0.53732300  0.25986895  0.85911005     0.61590
H1048       H  0.43072426  0.28991347  0.86861102     0.12290
H1049       H  0.56148132  0.42520007  0.90796039     0.12300
C1050       C  0.46015689  0.44500148  0.92585135     0.61830
F1051       F  0.49456873  0.22478875  0.85251485    -0.23340
F1052       F  0.57123632  0.23424336  0.87951226    -0.20670
F1053       F  0.56613316  0.27130767  0.83237042    -0.20350
F1054       F  0.48224499  0.43312350  0.95392109    -0.20400
F1055       F  0.40417570  0.44710520  0.93020762    -0.20720
F1056       F  0.48045419  0.49474015  0.91599098    -0.23390
C1057       C  0.00790955  0.35236274  0.85901861    -0.06230
C1058       C  0.04461671  0.39455934  0.86570801    -0.00300
C1059       C  0.02269304  0.44577928  0.87276007    -0.08880
C1060       C  0.96513728  0.45217967  0.87290661    -0.06250
C1061       C  0.92875587  0.40872476  0.86841160    -0.00320
C1062       C  0.95080095  0.35724008  0.86251407    -0.08780
C1063       C  0.91726313  0.30513386  0.86155600     0.61590
H1064       H  0.02412230  0.31319142  0.85374013     0.12290
H1065       H  0.94778585  0.49047600  0.87895769     0.12300
C1066       C  0.05888835  0.49276246  0.88205555     0.61830
F1067       F  0.94242544  0.26576356  0.87888242    -0.23340
F1068       F  0.91476779  0.28821861  0.83168059    -0.20670
F1069       F  0.86472149  0.30970664  0.87319558    -0.20350
F1070       F  0.10105802  0.50134337  0.86092530    -0.20400
F1071       F  0.08014160  0.48147891  0.91047218    -0.20720
F1072       F  0.02996824  0.54006517  0.88413686    -0.23390
C1073       C  0.33166133  0.65076445  0.89103704    -0.06230
C1074       C  0.28563464  0.67692916  0.87918354    -0.00300
C1075       C  0.23862497  0.64510329  0.87199244    -0.08880
C1076       C  0.24071229  0.58872359  0.87607287    -0.06250
C1077       C  0.28699396  0.56240180  0.88760534    -0.00320
C1078       C  0.33351415  0.59429434  0.89477374    -0.08780
C1079       C  0.38596532  0.56874851  0.90462957     0.61590
H1080       H  0.36746630  0.67490225  0.89647116     0.12290
H1081       H  0.20632514  0.56403695  0.86897396     0.12300
C1082       C  0.18638478  0.66949234  0.85969383     0.61830
F1083       F  0.42858256  0.60595514  0.90707977    -0.23340
F1084       F  0.40144567  0.53131930  0.88328287    -0.20670
F1085       F  0.37717894  0.54434975  0.93289064    -0.20350
F1086       F  0.19612680  0.69086838  0.83067959    -0.20400
F1087       F  0.16846929  0.70943574  0.87884341    -0.20720
F1088       F  0.14429313  0.63159138  0.85774249    -0.23390
C1089       C  0.22893901  0.17171782  0.89001311    -0.06230
C1090       C  0.18089800  0.19494900  0.87969006    -0.00300
C1091       C  0.14030268  0.16292583  0.86561192    -0.08880
C1092       C  0.14985034  0.10750155  0.86203517    -0.06250
C1093       C  0.19956185  0.08494470  0.87105957    -0.00320
C1094       C  0.23985943  0.11752707  0.88516610    -0.08780
C1095       C  0.29479485  0.09577087  0.89478226     0.61590
H1096       H  0.25977939  0.19762818  0.90003821     0.12290
H1097       H  0.11973996  0.08200705  0.85117875     0.12300
C1098       C  0.08846414  0.18812716  0.85365272     0.61830
F1099       F  0.33109274  0.13637920  0.90289897    -0.23340
F1100       F  0.31890469  0.06787554  0.87119061    -0.20670
F1101       F  0.28664347  0.06215583  0.91980392    -0.20350
F1102       F  0.10160404  0.22674905  0.83146395    -0.20400
F1103       F  0.06063486  0.21204622  0.87745538    -0.20720
F1104       F  0.05385304  0.15045082  0.84079584    -0.23390
C1105       C  0.65157688  0.48824868  0.03016628    -0.06230
C1106       C  0.69328142  0.52788845  0.03232787    -0.00300
C1107       C  0.73400570  0.53266514  0.00839790    -0.08880
C1108       C  0.73183154  0.49692162  0.98417379    -0.06250
C1109       C  0.69116568  0.45701940  0.98226769    -0.00320
C1110       C  0.64943757  0.45313963  0.00503840    -0.08780
C1111       C  0.60166713  0.41432074  0.00158699     0.61590
H1112       H  0.62080953  0.48496257  0.04822365     0.12290
H1113       H  0.76310480  0.49925623  0.96632533     0.12300
C1114       C  0.78140889  0.57373895  0.00814365     0.61830
F1115       F  0.56148208  0.42126255  0.02379318    -0.23340
F1116       F  0.61939898  0.36202792  0.00349600    -0.20670
F1117       F  0.57884717  0.42268418  0.97330654    -0.20350
F1118       F  0.81115191  0.56862719  0.03462453    -0.20400
F1119       F  0.76113614  0.62519779  0.00534598    -0.20720
F1120       F  0.81776512  0.56700607  0.98392527    -0.23390
C1121       C  0.86837680  0.77637597  0.02906102    -0.06230
C1122       C  0.81741598  0.76484949  0.04355129    -0.00300
C1123       C  0.76814242  0.78155291  0.02950309    -0.08880
C1124       C  0.77174035  0.80513374  0.00066749    -0.06250
C1125       C  0.82168649  0.81326050  0.98543528    -0.00320
C1126       C  0.87127041  0.80143164  0.99989624    -0.08780
C1127       C  0.92582578  0.81268565  0.98387966     0.61590
H1128       H  0.90536166  0.76202094  0.03943245     0.12290
H1129       H  0.73467708  0.81695447  0.98930067     0.12300
C1130       C  0.71132210  0.77705133  0.04447473     0.61830
F1131       F  0.96940134  0.79708708  0.00168595    -0.23340
F1132       F  0.93150694  0.86726410  0.97756112    -0.20670
F1133       F  0.92808149  0.78494123  0.95678212    -0.20350
F1134       F  0.70817378  0.81496597  0.06696865    -0.20400
F1135       F  0.70038904  0.72623871  0.05655963    -0.20720
F1136       F  0.66989923  0.78766973  0.02403293    -0.23390
C1137       C  0.64639215  0.58099871  0.24091702    -0.06230
C1138       C  0.62482690  0.61615196  0.21946555    -0.00300
C1139       C  0.58041865  0.64854790  0.22831842    -0.08880
C1140       C  0.56944777  0.65613533  0.25946363    -0.06250
C1141       C  0.59280131  0.62342241  0.28197347    -0.00320
C1142       C  0.62914150  0.58186071  0.27187012    -0.08780
C1143       C  0.65386556  0.54036013  0.29297559     0.61590
H1144       H  0.67785847  0.55383075  0.23340306     0.12290
H1145       H  0.53690983  0.68300951  0.26590006     0.12300
C1146       C  0.54107615  0.67213140  0.20530145     0.61830
F1147       F  0.67903305  0.49963700  0.27704540    -0.23340
F1148       F  0.61437973  0.51610642  0.31159074    -0.20670
F1149       F  0.69346580  0.56529673  0.30991400    -0.20350
F1150       F  0.48875982  0.66016326  0.21484164    -0.20400
F1151       F  0.54564943  0.65000451  0.17663980    -0.20720
F1152       F  0.54849922  0.72738436  0.20308779    -0.23390
C1153       C  0.88112391  0.74197097  0.21083983    -0.06230
C1154       C  0.82825594  0.71722845  0.21113538    -0.00300
C1155       C  0.81204430  0.68824080  0.23817040    -0.08880
C1156       C  0.84984623  0.68052620  0.26174140    -0.06250
C1157       C  0.90348366  0.70222999  0.26081084    -0.00320
C1158       C  0.91908235  0.73486268  0.23496712    -0.08780
C1159       C  0.97530244  0.76194517  0.23255860     0.61590
H1160       H  0.89348394  0.76605047  0.19107409     0.12290
H1161       H  0.83782268  0.65463015  0.28088045     0.12300
C1162       C  0.75626679  0.66188767  0.24200035     0.61830
F1163       F  0.98047888  0.79516965  0.20690020    -0.23340
F1164       F  0.01542539  0.72346510  0.23067725    -0.20670
F1165       F  0.98396021  0.79310359  0.25797246    -0.20350
F1166       F  0.75515293  0.61699330  0.22394563    -0.20400
F1167       F  0.71600521  0.69764668  0.23377133    -0.20720
F1168       F  0.74530041  0.64547712  0.27191010    -0.23390
C1169       C  0.68088678  0.94288732  0.00716679    -0.06230
C1170       C  0.72105809  0.96240133  0.98597253    -0.00300
C1171       C  0.76063316  0.00065467  0.99628227    -0.08880
C1172       C  0.75752012  0.01755841  0.02662672    -0.06250
C1173       C  0.71586606  0.00091601  0.04764885    -0.00320
C1174       C  0.67769057  0.96065361  0.03789442    -0.08780
C1175       C  0.63161425  0.93634226  0.05755944     0.61590
H1176       H  0.65147262  0.91295136  0.99957674     0.12290
H1177       H  0.78862216  0.04561377  0.03422727     0.12300
C1178       C  0.80728706  0.02421546  0.97613321     0.61830
F1179       F  0.62688809  0.88167789  0.05261385    -0.23340
F1180       F  0.58283611  0.95958107  0.04932179    -0.20670
F1181       F  0.63980328  0.94267939  0.08835696    -0.20350
F1182       F  0.78613439  0.05367199  0.95217899    -0.20400
F1183       F  0.83945387  0.98363085  0.96501111    -0.20720
F1184       F  0.84163976  0.05869648  0.99179663    -0.23390
C1185       C  0.84543993  0.22743579  0.02127428    -0.06230
C1186       C  0.80055466  0.22976863  0.04198431    -0.00300
C1187       C  0.75665820  0.26445502  0.03524813    -0.08880
C1188       C  0.76013895  0.29645706  0.00860101    -0.06250
C1189       C  0.80302400  0.29165422  0.98719892    -0.00320
C1190       C  0.84666509  0.25702151  0.99347166    -0.08780
C1191       C  0.89354291  0.25133380  0.97070137     0.61590
H1192       H  0.87888652  0.20091110  0.02658358     0.12290
H1193       H  0.72685626  0.32282095  0.00322759     0.12300
C1194       C  0.70358923  0.26347933  0.05387114     0.61830
F1195       F  0.93337663  0.21727374  0.98161990    -0.23340
F1196       F  0.91767687  0.30130484  0.96470830    -0.20670
F1197       F  0.87389109  0.23068558  0.94377209    -0.20350
F1198       F  0.71257730  0.28197693  0.08293096    -0.20400
F1199       F  0.68267867  0.21143611  0.05511924    -0.20720
F1200       F  0.66405851  0.29548805  0.04104973    -0.23390
C1201       C  0.78451606  0.84595132  0.12460251    -0.06230
C1202       C  0.72964328  0.83472389  0.13408706    -0.00300
C1203       C  0.69938512  0.87379044  0.14947718    -0.08880
C1204       C  0.72512139  0.92365991  0.15400513    -0.06250
C1205       C  0.77910961  0.93471923  0.14313941    -0.00320
C1206       C  0.81026040  0.89489074  0.12954029    -0.08780
C1207       C  0.87004013  0.90417591  0.12002171     0.61590
H1208       H  0.80811713  0.81613575  0.11299955     0.12290
H1209       H  0.70174696  0.95565443  0.16412139     0.12300
C1210       C  0.63993977  0.86429562  0.15925114     0.61830
F1211       F  0.89601823  0.85624919  0.11426244    -0.23340
F1212       F  0.89775664  0.92948020  0.14322695    -0.20670
F1213       F  0.87373924  0.93580077  0.09374561    -0.20350
F1214       F  0.63680956  0.82636191  0.18273765    -0.20400
F1215       F  0.61005020  0.84618983  0.13473623    -0.20720
F1216       F  0.61606977  0.91094253  0.16950264    -0.23390
C1217       C  0.80591555  0.36197486  0.11284933    -0.06230
C1218       C  0.79449216  0.34093884  0.14202274    -0.00300
C1219       C  0.78770954  0.37441934  0.16719164    -0.08880
C1220       C  0.78513653  0.42974824  0.16142587    -0.06250
C1221       C  0.78752192  0.45048802  0.13131107    -0.00320
C1222       C  0.80154870  0.41683352  0.10669825    -0.08780
C1223       C  0.80490347  0.43656248  0.07376969     0.61590
H1224       H  0.81316745  0.33431177  0.09438266     0.12290
H1225       H  0.77614411  0.45663353  0.18001102     0.12300
C1226       C  0.78209665  0.35143138  0.19942285     0.61830
F1227       F  0.82026503  0.39643713  0.05396179    -0.23340
F1228       F  0.84293329  0.47826603  0.07065374    -0.20670
F1229       F  0.75398756  0.45370510  0.06523086    -0.20350
F1230       F  0.82741795  0.32079721  0.20594272    -0.20400
F1231       F  0.73536257  0.31923350  0.20204194    -0.20720
F1232       F  0.77857863  0.39161049  0.22084486    -0.23390
C1233       C  0.65018280  0.09261482  0.24036615    -0.06230
C1234       C  0.64243265  0.13343305  0.21844190    -0.00300
C1235       C  0.60431422  0.17491140  0.22465365    -0.08880
C1236       C  0.57905525  0.17564366  0.25349495    -0.06250
C1237       C  0.58937748  0.13649757  0.27583714    -0.00320
C1238       C  0.62546149  0.09389131  0.26930918    -0.08780
C1239       C  0.63804516  0.04962271  0.29235325     0.61590
H1240       H  0.67718096  0.05993319  0.23496196     0.12290
H1241       H  0.55038204  0.20702596  0.25890213     0.12300
C1242       C  0.58752126  0.21690579  0.20109025     0.61830
F1243       F  0.67154915  0.01068077  0.28022254    -0.23340
F1244       F  0.58988978  0.02435757  0.30222088    -0.20670
F1245       F  0.66496844  0.07176887  0.31677202    -0.20350
F1246       F  0.57051799  0.19118689  0.17517766    -0.20400
F1247       F  0.63095657  0.25176825  0.19414790    -0.20720
F1248       F  0.54421464  0.24758238  0.21123658    -0.23390
C1249       C  0.90710330  0.20908830  0.21633438    -0.06230
C1250       C  0.85340569  0.18744000  0.21889656    -0.00300
C1251       C  0.82970508  0.17901286  0.24832518    -0.08880
C1252       C  0.86187411  0.18850210  0.27408684    -0.06250
C1253       C  0.91657812  0.20670676  0.27143666    -0.00320
C1254       C  0.93911587  0.21936775  0.24218338    -0.08780
C1255       C  0.99724169  0.24142203  0.23823831     0.61590
H1256       H  0.92428725  0.21696889  0.19370634     0.12290
H1257       H  0.84548742  0.17875628  0.29669425     0.12300
C1258       C  0.77226893  0.15658911  0.25251842     0.61830
F1259       F  0.01096480  0.25131919  0.20781165    -0.23340
F1260       F  0.03395716  0.20496005  0.24988466    -0.20670
F1261       F  0.00232645  0.28937204  0.25359739    -0.20350
F1262       F  0.76865293  0.10806568  0.23773647    -0.20400
F1263       F  0.73575336  0.19277527  0.24043225    -0.20720
F1264       F  0.75815552  0.14757683  0.28298340    -0.23390
C1265       C  0.17352912  0.53184135  0.00092804    -0.06230
C1266       C  0.15497078  0.50711570  0.02813894    -0.00300
C1267       C  0.13087110  0.45437018  0.02636138    -0.08880
C1268       C  0.13524094  0.42605412  0.99851353    -0.06250
C1269       C  0.15911767  0.44967484  0.97199925    -0.00320
C1270       C  0.17465330  0.50538995  0.97301480    -0.08780
C1271       C  0.20080026  0.53676653  0.94664298     0.61590
H1272       H  0.18975152  0.57267213  0.00171056     0.12290
H1273       H  0.12075045  0.38471269  0.99739254     0.12300
C1274       C  0.09610960  0.42943164  0.05194689     0.61830
F1275       F  0.19550265  0.59173124  0.94977360    -0.23340
F1276       F  0.17670416  0.52376081  0.91942309    -0.20670
F1277       F  0.25597001  0.52575063  0.94638496    -0.20350
F1278       F  0.04860049  0.45844119  0.05424296    -0.20400
F1279       F  0.12344618  0.42967217  0.07930089    -0.20720
F1280       F  0.08110784  0.37663474  0.04611307    -0.23390
C1281       C  0.26744512  0.82413039  0.00217862    -0.06230
C1282       C  0.23487679  0.79911172  0.98013210    -0.00300
C1283       C  0.21138618  0.74799139  0.98669543    -0.08880
C1284       C  0.22457985  0.72161495  0.01418176    -0.06250
C1285       C  0.26046959  0.74461479  0.03559188    -0.00320
C1286       C  0.28015706  0.79827304  0.03015019    -0.08780
C1287       C  0.31696331  0.82742753  0.05236266     0.61590
H1288       H  0.28582379  0.86305343  0.99644314     0.12290
H1289       H  0.20732794  0.68178011  0.01876366     0.12300
C1290       C  0.17300606  0.72126718  0.96444977     0.61830
F1291       F  0.33095540  0.87902921  0.04214118    -0.23340
F1292       F  0.36473916  0.79949782  0.05586626    -0.20670
F1293       F  0.29100129  0.83175812  0.08041268    -0.20350
F1294       F  0.20224449  0.70597975  0.93884740    -0.20400
F1295       F  0.13295844  0.75697276  0.95588310    -0.20720
F1296       F  0.14707265  0.67607389  0.97726020    -0.23390
C1297       C  0.45483663  0.56372458  0.10134164    -0.06230
C1298       C  0.42929639  0.61065301  0.09137927    -0.00300
C1299       C  0.46234969  0.65656319  0.08373373    -0.08880
C1300       C  0.51768131  0.65758389  0.09192592    -0.06250
C1301       C  0.54203951  0.61293234  0.10577258    -0.00320
C1302       C  0.51067442  0.56368021  0.10903483    -0.08780
C1303       C  0.53366508  0.51178788  0.12236566     0.61590
H1304       H  0.42926099  0.52853331  0.10638015     0.12290
H1305       H  0.54168394  0.69431576  0.08809572     0.12300
C1306       C  0.43942468  0.70667122  0.06924825     0.61830
F1307       F  0.49515819  0.47013388  0.12339290    -0.23340
F1308       F  0.55060492  0.51996540  0.15198038    -0.20670
F1309       F  0.57716929  0.49503576  0.10449026    -0.20350
F1310       F  0.42948826  0.74381545  0.09174772    -0.20400
F1311       F  0.39156951  0.69501691  0.05400359    -0.20720
F1312       F  0.47659550  0.72883499  0.04812682    -0.23390
C1313       C  0.94789449  0.58114733  0.13925030    -0.06230
C1314       C  0.92786877  0.63284050  0.13486604    -0.00300
C1315       C  0.96473376  0.67721492  0.12926845    -0.08880
C1316       C  0.02025221  0.66714497  0.12623712    -0.06250
C1317       C  0.03908652  0.61503696  0.12701200    -0.00320
C1318       C  0.00326389  0.57072245  0.13399774    -0.08780
C1319       C  0.02096896  0.51263210  0.13141657     0.61590
H1320       H  0.91869828  0.54814514  0.14294897     0.12290
H1321       H  0.04914523  0.69974036  0.12066007     0.12300
C1322       C  0.94758816  0.73328575  0.12042117     0.61830
F1323       F  0.97767166  0.47641170  0.13605491    -0.23340
F1324       F  0.06082029  0.49996705  0.15211947    -0.20670
F1325       F  0.04163474  0.50552862  0.10253380    -0.20350
F1326       F  0.90203170  0.74739789  0.13657674    -0.20400
F1327       F  0.93730302  0.73513632  0.08956921    -0.20720
F1328       F  0.98816731  0.77121749  0.12646156    -0.23390
C1329       C  0.11311633  0.55947670  0.21110265    -0.06230
C1330       C  0.17037341  0.56017258  0.21437499    -0.00300
C1331       C  0.19066630  0.56626117  0.24435618    -0.08880
C1332       C  0.15410288  0.57840827  0.26863246    -0.06250
C1333       C  0.09706558  0.58123845  0.26463409    -0.00320
C1334       C  0.07596130  0.56817696  0.23555439    -0.08780
C1335       C  0.01468786  0.56442535  0.22977585     0.61590
H1336       H  0.09727418  0.55392670  0.18876651     0.12290
H1337       H  0.17019606  0.58670767  0.29102522     0.12300
C1338       C  0.25047764  0.56019248  0.25091959     0.61830
F1339       F  0.00355700  0.55047260  0.20011302    -0.23340
F1340       F  0.99067735  0.61342080  0.23500033    -0.20670
F1341       F  0.99081868  0.52518538  0.24873527    -0.20350
F1342       F  0.27801120  0.60471025  0.23917689    -0.20400
F1343       F  0.26957856  0.51397286  0.23766078    -0.20720
F1344       F  0.26028772  0.55647704  0.28194065    -0.23390
C1345       C  0.41328197  0.57407890  0.25421088    -0.06230
C1346       C  0.41748058  0.62146669  0.27053597    -0.00300
C1347       C  0.40458496  0.67154502  0.25526117    -0.08880
C1348       C  0.37863504  0.66931722  0.22669233    -0.06250
C1349       C  0.37521982  0.62148968  0.21030872    -0.00320
C1350       C  0.39665029  0.57346601  0.22385881    -0.08780
C1351       C  0.40164228  0.52074172  0.20725789     0.61590
H1352       H  0.42481565  0.53682200  0.26535951     0.12290
H1353       H  0.36569875  0.70635389  0.21571370     0.12300
C1354       C  0.42431626  0.72824090  0.26370686     0.61830
F1355       F  0.42422167  0.48027110  0.22496063    -0.23340
F1356       F  0.43509570  0.52807265  0.18163957    -0.20670
F1357       F  0.35009627  0.50353295  0.19926404    -0.20350
F1358       F  0.46020597  0.74790113  0.24129601    -0.20400
F1359       F  0.45141596  0.73121002  0.29097801    -0.20720
F1360       F  0.38059361  0.76293704  0.26431457    -0.23390
C1361       C  0.27625003  0.02816587  0.00717221    -0.06230
C1362       C  0.32735817  0.04631963  0.01702937    -0.00300
C1363       C  0.37482939  0.02983453  0.00104986    -0.08880
C1364       C  0.36864908  0.99530366  0.97556346    -0.06250
C1365       C  0.31638682  0.97746326  0.96581562    -0.00320
C1366       C  0.26902030  0.99513721  0.98211441    -0.08780
C1367       C  0.21032209  0.97569509  0.97654658     0.61590
H1368       H  0.24081657  0.03742351  0.02074673     0.12290
H1369       H  0.40451792  0.98211051  0.96312845     0.12300
C1370       C  0.43104201  0.04700325  0.01171227     0.61830
F1371       F  0.17173816  0.00590428  0.99175418    -0.23340
F1372       F  0.20373020  0.92381253  0.98747070    -0.20670
F1373       F  0.19745475  0.97862603  0.94618979    -0.20350
F1374       F  0.43788610  0.02978308  0.04162396    -0.20400
F1375       F  0.43600303  0.10252567  0.01015641    -0.20720
F1376       F  0.47235553  0.02556476  0.99389702    -0.23390
C1377       C  0.28134381  0.22470206  0.02021634    -0.06230
C1378       C  0.23401554  0.19053539  0.01920757    -0.00300
C1379       C  0.19775251  0.19887961  0.99473939    -0.08880
C1380       C  0.20968374  0.24121723  0.97307794    -0.06250
C1381       C  0.25621106  0.27651329  0.97499941    -0.00320
C1382       C  0.29273316  0.26737140  0.99907771    -0.08780
C1383       C  0.34389942  0.30211909  0.00241204     0.61590
H1384       H  0.30992667  0.21849514  0.03839866     0.12290
H1385       H  0.18162375  0.24762310  0.95450129     0.12300
C1386       C  0.14634745  0.16433929  0.99185526     0.61830
F1387       F  0.37637013  0.28411114  0.02602228    -0.23340
F1388       F  0.32913286  0.35435297  0.00852803    -0.20670
F1389       F  0.37485454  0.30148689  0.97565798    -0.20350
F1390       F  0.11386382  0.16859232  0.01786906    -0.20400
F1391       F  0.16068121  0.11131380  0.98830141    -0.20720
F1392       F  0.11565871  0.17955456  0.96689238    -0.23390
C1393       C  0.17118947  0.82872123  0.09452319    -0.06230
C1394       C  0.18514698  0.80248310  0.12236422    -0.00300
C1395       C  0.20321909  0.83614537  0.14642617    -0.08880
C1396       C  0.21247995  0.89214751  0.14055515    -0.06250
C1397       C  0.20364705  0.91714658  0.11182119    -0.00320
C1398       C  0.18042661  0.88486535  0.08882814    -0.08780
C1399       C  0.16990117  0.90874658  0.05752813     0.61590
H1400       H  0.15623537  0.80423861  0.07613264     0.12290
H1401       H  0.22864699  0.91692797  0.15854021     0.12300
C1402       C  0.21399459  0.81375767  0.17823913     0.61830
F1403       F  0.15201662  0.87024410  0.03729976    -0.23340
F1404       F  0.21806544  0.93186798  0.04602861    -0.20670
F1405       F  0.13021251  0.94761478  0.05959506    -0.20350
F1406       F  0.26246245  0.78568857  0.17816707    -0.20400
F1407       F  0.17103046  0.77999900  0.18771834    -0.20720
F1408       F  0.21857094  0.85431082  0.19940235    -0.23390
C1409       C  0.25397247  0.38593678  0.09334407    -0.06230
C1410       C  0.28601385  0.41299034  0.11499624    -0.00300
C1411       C  0.32558631  0.38247143  0.13096439    -0.08880
C1412       C  0.33038588  0.32707834  0.12497449    -0.06250
C1413       C  0.29412390  0.29968833  0.10589914    -0.00320
C1414       C  0.25335711  0.32979465  0.09075403    -0.08780
C1415       C  0.20499726  0.30643011  0.07380280     0.61590
H1416       H  0.22432948  0.40806588  0.08020255     0.12290
H1417       H  0.35861113  0.30322269  0.13801396     0.12300
C1418       C  0.35839089  0.40568793  0.15655649     0.61830
F1419       F  0.15689484  0.32602515  0.08609006    -0.23340
F1420       F  0.20104042  0.25156675  0.07605241    -0.20670
F1421       F  0.20875238  0.32175523  0.04329462    -0.20350
F1422       F  0.32249823  0.41575563  0.18038963    -0.20400
F1423       F  0.38530950  0.45228099  0.14661613    -0.20720
F1424       F  0.39754467  0.37062430  0.16724911    -0.23390
C1425       C  0.55145067  0.19449980  0.11206303    -0.06230
C1426       C  0.57769712  0.14469984  0.10962862    -0.00300
C1427       C  0.54364419  0.09700810  0.11029955    -0.08880
C1428       C  0.48804423  0.10022136  0.11721707    -0.06250
C1429       C  0.46197787  0.14887169  0.12139799    -0.00320
C1430       C  0.49376192  0.19746452  0.11776388    -0.08780
C1431       C  0.46753061  0.25186092  0.12011904     0.61590
H1432       H  0.57679463  0.23073742  0.11173886     0.12290
H1433       H  0.46400783  0.06321360  0.11961989     0.12300
C1434       C  0.56462962  0.04107454  0.10459874     0.61830
F1435       F  0.50509378  0.29362013  0.11496718    -0.23340
F1436       F  0.44518378  0.25724176  0.14908214    -0.20670
F1437       F  0.42709626  0.25639287  0.09853757    -0.20350
F1438       F  0.58402546  0.01827103  0.13135256    -0.20400
F1439       F  0.60518829  0.04462189  0.08250218    -0.20720
F1440       F  0.52375438  0.00718008  0.09391290    -0.23390
C1441       C  0.06304666  0.15062593  0.12767478    -0.06230
C1442       C  0.08056802  0.09760857  0.13309086    -0.00300
C1443       C  0.04107777  0.05545829  0.13647085    -0.08880
C1444       C  0.98579019  0.06768265  0.13195493    -0.06250
C1445       C  0.96879772  0.11969293  0.12312943    -0.00320
C1446       C  0.00795060  0.16259033  0.12208583    -0.08780
C1447       C  0.99295761  0.22016172  0.11387156     0.61590
H1448       H  0.09384612  0.18255691  0.12607259     0.12290
H1449       H  0.95538605  0.03552224  0.13411544     0.12300
C1450       C  0.05679922  0.99730642  0.14263239     0.61830
F1451       F  0.03838539  0.25444803  0.11294252    -0.23340
F1452       F  0.95659392  0.23938664  0.13546035    -0.20670
F1453       F  0.96942256  0.22191296  0.08531945    -0.20350
F1454       F  0.08451379  0.99319718  0.16984042    -0.20400
F1455       F  0.08980033  0.97964335  0.11905787    -0.20720
F1456       F  0.01140582  0.96311949  0.14483432    -0.23390
C1457       C  0.14964458  0.14558830  0.27785685    -0.06230
C1458       C  0.10285125  0.11138830  0.27890371    -0.00300
C1459       C  0.08674794  0.08572211  0.25166661    -0.08880
C1460       C  0.11932769  0.09352639  0.22493891    -0.06250
C1461       C  0.16618447  0.12737754  0.22407081    -0.00320
C1462       C  0.18163050  0.15401388  0.25096816    -0.08780
C1463       C  0.23200841  0.19067826  0.25130443     0.61590
H1464       H  0.16030165  0.16686846  0.29828794     0.12290
H1465       H  0.10865773  0.07280165  0.20427999     0.12300
C1466       C  0.03416566  0.05218214  0.25035756     0.61830
F1467       F  0.23954274  0.21332855  0.27963410    -0.23340
F1468       F  0.22644899  0.23198666  0.23004330    -0.20670
F1469       F  0.27822951  0.16178797  0.24415480    -0.20350
F1470       F  0.98981488  0.08312405  0.25847606    -0.20400
F1471       F  0.03719189  0.00846674  0.27021476    -0.20720
F1472       F  0.02498667  0.03295815  0.22135861    -0.23390
C1473       C  0.32679492  0.04373045  0.24483361    -0.06230
C1474       C  0.36213004  0.04852488  0.21923480    -0.00300
C1475       C  0.41935563  0.04989853  0.22338183    -0.08880
C1476       C  0.43942529  0.04975113  0.25329310    -0.06250
C1477       C  0.40383934  0.05228830  0.27887290    -0.00320
C1478       C  0.34659509  0.04682224  0.27475140    -0.08780
C1479       C  0.30614301  0.04892749  0.30128795     0.61590
H1480       H  0.28293398  0.04340606  0.24120827     0.12290
H1481       H  0.48321182  0.05397979  0.25667397     0.12300
C1482       C  0.45854529  0.05750007  0.19650122     0.61830
F1483       F  0.25479942  0.02960904  0.29331110    -0.23340
F1484       F  0.30099002  0.10166344  0.31016539    -0.20670
F1485       F  0.32409876  0.01794677  0.32560443    -0.20350
F1486       F  0.45210456  0.10843328  0.18414629    -0.20400
F1487       F  0.44731345  0.01938368  0.17471926    -0.20720
F1488       F  0.51275649  0.05252043  0.20492833    -0.23390
loop_ 
_geom_bond_atom_site_label_1 
_geom_bond_atom_site_label_2 
_geom_bond_distance 
_geom_bond_site_symmetry_2 
_ccdc_geom_bond_type 
O1            C9   1.258       .  A
O1          Co21   1.975       .  S
O2           C10   1.263       .  A
O2          Co22   2.010       .  S
O3           C11   1.259       .  A
O3          Co23   1.971       .  S
O4           C12   1.266       .  A
O4          Co24   1.927       .  S
O5           C11   1.281       .  A
O5          Co22   2.050       .  S
O6           C12   1.289       .  A
O6          Co21   2.056       .  S
O7           C10   1.277       .  A
O7          Co24   2.015       .  S
O8            C9   1.273       .  A
O8          Co23   2.018       .  S
C9         C1461   1.486       .  S
C10        C1378   1.524       .  S
C11        C1413   1.484       .  S
C12        C1442   1.480       .  S
O13          C26   1.257       .  A
O13         Co21   1.962   1_565  S
O14          C27   1.263       .  A
O14         Co22   1.923       .  S
O15          C28   1.273       .  A
O15         Co23   2.000       .  S
O16          C29   1.285       .  A
O16         Co24   2.052       .  S
O17          C29   1.278       .  A
O17         Co22   1.960       .  S
O18          C28   1.273       .  A
O18         Co21   1.983       .  S
O19          C26   1.278   1_545  A
O19         Co24   2.073       .  S
O20          C27   1.284       .  A
O20         Co23   2.080       .  S
Co21         O25   2.028       .  S
Co22         O25   2.010       .  S
Co23         O25   2.039       .  S
Co24         O25   2.054       .  S
C26        C1397   1.527       .  S
C27        C1429   1.499       .  S
C28        C1474   1.473       .  S
C29        C1362   1.495       .  S
O30          C38   1.267       .  A
O30         Co50   2.042       .  S
O31          C39   1.243       .  A
O31         Co51   1.946       .  S
O32          C40   1.255       .  A
O32         Co52   2.030       .  S
O33          C41   1.258       .  A
O33         Co53   1.992       .  S
O34          C40   1.256       .  A
O34         Co51   1.977       .  S
O35          C41   1.257       .  A
O35         Co50   1.969       .  S
O36          C39   1.259       .  A
O36         Co53   2.054       .  S
O37          C38   1.250       .  A
O37         Co52   1.957       .  S
C38        C1410   1.512       .  S
C39        C1285   1.500       .  S
C40        C1266   1.510       .  S
C41        C1298   1.483       .  S
O42          C55   1.256       .  A
O42         Co50   1.872       .  S
O43          C56   1.276       .  A
O43         Co51   2.023       .  S
O44          C57   1.255       .  A
O44         Co52   2.001       .  S
O45          C58   1.277       .  A
O45         Co53   1.984       .  S
O46          C58   1.286       .  A
O46         Co51   2.064       .  S
O47          C57   1.258       .  A
O47         Co50   2.064       .  S
O48          C55   1.311       .  A
O48         Co53   2.119       .  S
O49          C56   1.242       .  A
O49         Co52   1.898       .  S
Co50         O54   1.926       .  S
Co51         O54   2.034       .  S
Co52         O54   2.130       .  S
Co53         O54   2.252       .  S
C55        C1349   1.496       .  S
C56        C1317   1.440       .  S
C57        C1330   1.519       .  S
C58        C1394   1.534       .  S
O59          C67   1.256       .  A
O59         Co79   1.951       .  S
O60          C68   1.253       .  A
O60         Co80   1.954       .  S
O61          C69   1.232       .  A
O61         Co81   1.949       .  S
O62          C70   1.246   1_545  A
O62         Co82   1.930       .  S
O63          C69   1.261       .  A
O63         Co80   2.082       .  S
O64          C70   1.273   1_545  A
O64         Co79   2.008       .  S
O65          C68   1.271       .  A
O65         Co82   1.987       .  S
O66          C67   1.266       .  A
O66         Co81   2.001       .  S
C67        C1445   1.489       .  S
C68        C1234   1.479       .  S
C69        C1250   1.490       .  S
C70        C1205   1.440       .  S
O71          C84   1.248       .  A
O71         Co79   1.948       .  S
O72          C85   1.297       .  A
O72         Co80   1.973       .  S
O73          C86   1.258       .  A
O73         Co81   1.981       .  S
O74          C87   1.262       .  A
O74         Co82   1.949       .  S
O75          C87   1.294       .  A
O75         Co80   2.043       .  S
O76          C86   1.262       .  A
O76         Co79   1.999       .  S
O77          C84   1.280       .  A
O77         Co82   2.107       .  S
O78          C85   1.283       .  A
O78         Co81   1.940       .  S
Co79         O83   2.016       .  S
Co80         O83   2.050       .  S
Co81         O83   1.954       .  S
Co82         O83   2.007       .  S
C84        C1173   1.519       .  S
C85        C1218   1.434       .  S
C86        C1186   1.485       .  S
C87        C1426   1.508       .  S
O88          C96   1.251       .  A
O88        Co108   1.973       .  S
O89          C97   1.253       .  A
O89        Co109   1.794       .  S
O90          C98   1.271       .  A
O90        Co110   1.922       .  S
O91          C99   1.280       .  A
O91        Co111   1.833       .  S
O92          C98   1.309       .  A
O92        Co109   2.142       .  S
O93          C99   1.312       .  A
O93        Co108   2.128       .  S
O94          C97   1.315       .  A
O94        Co111   2.138       .  S
O95          C96   1.246       .  A
O95        Co110   1.978       .  S
C96        C1314   1.450       .  S
C97        C1138   1.481       .  S
C98        C1154   1.527       .  S
C99        C1221   1.455       .  S
O100        C113   1.220       .  A
O100       Co108   1.929       .  S
O101        C114   1.241       .  A
O101       Co109   2.001       .  S
O102        C115   1.273       .  A
O102       Co110   2.017       .  S
O103        C116   1.254       .  A
O103       Co111   1.942       .  S
O104        C116   1.277       .  A
O104       Co109   2.015       .  S
O105        C115   1.255       .  A
O105       Co108   1.933       .  S
O106        C113   1.258       .  A
O106       Co111   2.092       .  S
O107        C114   1.226       .  A
O107       Co110   1.912       .  S
Co108       O112   2.024       .  S
Co109       O112   1.967       .  S
Co110       O112   1.871       .  S
Co111       O112   2.041       .  S
C113       C1106   1.493       .  S
C114       C1202   1.460       .  S
C115       C1122   1.462       .  S
C116       C1301   1.492       .  S
O117        C125   1.288       .  A
O117       Co137   1.992       .  S
O118        C126   1.282       .  A
O118       Co138   2.087       .  S
O119        C127   1.284       .  A
O119       Co139   2.048       .  S
O120        C128   1.264       .  A
O120       Co140   2.020       .  S
O121        C127   1.263       .  A
O121       Co138   1.923       .  S
O122        C128   1.256       .  A
O122       Co137   2.000       .  S
O123        C126   1.237       .  A
O123       Co140   1.934       .  S
O124        C125   1.272       .  A
O124       Co139   2.021       .  S
C125       C1381   1.519       .  S
C126       C1029   1.506       .  S
C127       C1090   1.458       .  S
C128       C1042   1.490       .  S
O129        C142   1.305       .  A
O129       Co137   2.105       .  S
O130        C143   1.266       .  A
O130       Co138   2.027       .  S
O131        C144   1.278       .  A
O131       Co139   1.968       .  S
O132        C145   1.268       .  A
O132       Co140   2.070       .  S
O133        C145   1.223       .  A
O133       Co138   1.917       .  S
O134        C144   1.277       .  A
O134       Co137   2.039       .  S
O135        C142   1.260       .  A
O135       Co140   1.922       .  S
O136        C143   1.254       .  A
O136       Co139   1.992       .  S
Co137       O141   2.035       .  S
Co138       O141   2.043       .  S
Co139       O141   2.021       .  S
Co140       O141   2.081       .  S
C142       C1077   1.504       .  S
C143       C1058   1.501       .  S
C144       C1269   1.508       .  S
C145       C1010   1.464       .  S
O146        C154   1.242       .  A
O146       Co166   1.956       .  S
O147        C155   1.267       .  A
O147       Co167   1.988       .  S
O148        C156   1.247       .  A
O148       Co168   1.931       .  S
O149        C157   1.266       .  A
O149       Co169   1.901   1_545  S
O150        C156   1.286       .  A
O150       Co167   2.100       .  S
O151        C157   1.290   1_565  A
O151       Co166   2.095       .  S
O152        C155   1.272       .  A
O152       Co169   2.007       .  S
O153        C154   1.259       .  A
O153       Co168   2.047       .  S
C154       C1365   1.501       .  S
C155        C962   1.490       .  S
C156        C981   1.511       .  S
C157       C1093   1.471       .  S
O158        C171   1.247       .  A
O158       Co166   1.942       .  S
O159        C172   1.256       .  A
O159       Co167   1.975       .  S
O160        C173   1.242       .  A
O160       Co168   1.946       .  S
O161        C174   1.268       .  A
O161       Co169   2.014       .  S
O162        C174   1.271       .  A
O162       Co167   2.002       .  S
O163        C173   1.262       .  A
O163       Co166   2.025       .  S
O164        C171   1.265       .  A
O164       Co169   2.057       .  S
O165        C172   1.267       .  A
O165       Co168   2.024       .  S
Co166       O170   2.123       .  S
Co167       O170   2.092       .  S
Co168       O170   2.114       .  S
Co169       O170   2.015       .  S
C171        C997   1.480       .  S
C172       C1074   1.501       .  S
C173       C1282   1.480       .  S
C174        C949   1.501       .  S
O175        C183   1.278       .  A
O175       Co195   2.048       .  S
O176        C184   1.264       .  A
O176       Co196   2.009       .  S
O177        C185   1.262       .  A
O177       Co197   2.009       .  S
O178        C186   1.299       .  A
O178       Co198   2.140       .  S
O179        C185   1.249       .  A
O179       Co196   1.918       .  S
O180        C186   1.247       .  A
O180       Co195   1.912       .  S
O181        C184   1.273       .  A
O181       Co198   2.037       .  S
O182        C183   1.259       .  A
O182       Co197   1.948       .  S
C183       C1189   1.471       .  S
C184        C898   1.507       .  S
C185        C930   1.477       .  S
C186       C1061   1.485       .  S
O187        C200   1.289       .  A
O187       Co195   2.077       .  S
O188        C201   1.276       .  A
O188       Co196   2.078       .  S
O189        C202   1.252       .  A
O189       Co197   2.025       .  S
O190        C203   1.315       .  A
O190       Co198   2.168       .  S
O191        C203   1.261       .  A
O191       Co196   1.837       .  S
O192        C202   1.240       .  A
O192       Co195   1.957       .  S
O193        C200   1.256       .  A
O193       Co198   1.856       .  S
O194        C201   1.243       .  A
O194       Co197   1.916       .  S
Co195       O199   2.100       .  S
Co196       O199   1.973       .  S
Co197       O199   2.109       .  S
Co198       O199   1.988       .  S
C200        C914   1.444       .  S
C201       C1045   1.494       .  S
C202       C1109   1.481       .  S
C203        C885   1.494       .  S
O204        C212   1.258       .  A
O204       Co224   1.993       .  S
O205        C213   1.279       .  A
O205       Co225   1.992       .  S
O206        C214   1.258       .  A
O206       Co226   1.980       .  S
O207        C215   1.287       .  A
O207       Co227   2.060       .  S
O208        C214   1.245       .  A
O208       Co225   1.965       .  S
O209        C215   1.249       .  A
O209       Co224   1.922       .  S
O210        C213   1.278       .  A
O210       Co227   2.033       .  S
O211        C212   1.253       .  A
O211       Co226   1.953       .  S
C212       C1125   1.452       .  S
C213        C866   1.514       .  S
C214        C917   1.460       .  S
C215        C994   1.483       .  S
O216        C229   1.260   1_565  A
O216       Co224   1.997       .  S
O217        C230   1.287       .  A
O217       Co225   2.060       .  S
O218        C231   1.270       .  A
O218       Co226   2.040       .  S
O219        C232   1.279       .  A
O219       Co227   1.981       .  S
O220        C232   1.274       .  A
O220       Co225   2.030       .  S
O221        C231   1.251       .  A
O221       Co224   1.957       .  S
O222        C229   1.245   1_565  A
O222       Co227   1.963       .  S
O223        C230   1.270       .  A
O223       Co226   1.945       .  S
Co224       O228   2.072       .  S
Co225       O228   2.053       .  S
Co226       O228   2.051       .  S
Co227       O228   2.042       .  S
C229        C933   1.451       .  S
C230        C978   1.507       .  S
C231       C1170   1.507       .  S
C232        C850   1.493       .  S
O233        C241   1.262       .  A
O233       Co253   1.830       .  S
O234        C242   1.284       .  A
O234       Co254   1.983       .  S
O235        C243   1.265       .  A
O235       Co255   1.959       .  S
O236        C244   1.249       .  A
O236       Co256   1.923       .  S
O237        C243   1.305       .  A
O237       Co254   2.109       .  S
O238        C244   1.286       .  A
O238       Co253   2.103       .  S
O239        C242   1.285   1_455  A
O239       Co256   2.058       .  S
O240        C241   1.323       .  A
O240       Co255   2.156   1_455  S
C241       C1013   1.493       .  S
C242        C770   1.503       .  S
C243        C805   1.506       .  S
C244        C834   1.481       .  S
O245        C258   1.259       .  A
O245       Co253   1.942       .  S
O246        C259   1.275       .  A
O246       Co254   1.867       .  S
O247        C260   1.254       .  A
O247       Co255   1.856       .  S
O248        C261   1.237   1_455  A
O248       Co256   1.941       .  S
O249        C261   1.280       .  A
O249       Co254   2.094       .  S
O250        C260   1.322       .  A
O250       Co253   2.169   1_655  S
O251        C258   1.281       .  A
O251       Co256   2.052       .  S
O252        C259   1.311       .  A
O252       Co255   2.165       .  S
Co253       O257   1.964       .  S
Co254       O257   1.890   1_655  S
Co255       O257   1.995   1_655  S
Co256       O257   1.998       .  S
C258        C786   1.485       .  S
C259        C818   1.491       .  S
C260        C901   1.497       .  S
C261        C754   1.517       .  S
O262        C270   1.298       .  A
O262       Co282   2.076   1_655  S
O263        C271   1.265       .  A
O263       Co283   2.038       .  S
O264        C272   1.258       .  A
O264       Co284   2.044       .  S
O265        C273   1.259       .  A
O265       Co285   2.010       .  S
O266        C272   1.252       .  A
O266       Co283   1.948       .  S
O267        C273   1.260   1_655  A
O267       Co282   1.997   1_655  S
O268        C271   1.245       .  A
O268       Co285   1.933   1_655  S
O269        C270   1.283       .  A
O269       Co284   1.889       .  S
C270        C869   1.501       .  S
C271        C709   1.497       .  S
C272        C722   1.486       .  S
C273        C789   1.491       .  S
O274        C287   1.276       .  A
O274       Co282   2.085       .  S
O275        C288   1.276   1_565  A
O275       Co283   2.034       .  S
O276        C289   1.310       .  A
O276       Co284   2.099   1_455  S
O277        C290   1.264       .  A
O277       Co285   2.015       .  S
O278        C290   1.257       .  A
O278       Co283   1.963   1_455  S
O279        C289   1.271       .  A
O279       Co282   1.902       .  S
O280        C287   1.255       .  A
O280       Co285   1.941       .  S
O281        C288   1.278   1_465  A
O281       Co284   2.006   1_455  S
Co282       O286   2.050       .  S
Co283       O286   2.087   1_655  S
Co284       O286   2.056   1_655  S
Co285       O286   2.059       .  S
C287        C738   1.499       .  S
C288        C802   1.514       .  S
C289        C946   1.499       .  S
C290        C693   1.488       .  S
O291        C299   1.266       .  A
O291       Co311   2.018       .  S
O292        C300   1.252       .  A
O292       Co312   1.967       .  S
O293        C301   1.244       .  A
O293       Co313   1.949       .  S
O294        C302   1.250       .  A
O294       Co314   1.950       .  S
O295        C301   1.266       .  A
O295       Co312   2.047       .  S
O296        C302   1.273       .  A
O296       Co311   2.049       .  S
O297        C300   1.256       .  A
O297       Co314   1.986       .  S
O298        C299   1.266       .  A
O298       Co313   1.967       .  S
C299       C1026   1.478       .  S
C300        C626   1.487       .  S
C301        C658   1.508       .  S
C302        C837   1.489       .  S
O303        C316   1.248       .  A
O303       Co311   1.963       .  S
O304        C317   1.256       .  A
O304       Co312   1.915       .  S
O305        C318   1.273       .  A
O305       Co313   1.958       .  S
O306        C319   1.248       .  A
O306       Co314   1.960       .  S
O307        C319   1.273       .  A
O307       Co312   2.049       .  S
O308        C318   1.266       .  A
O308       Co311   2.041       .  S
O309        C316   1.257       .  A
O309       Co314   1.998       .  S
O310        C317   1.327       .  A
O310       Co313   2.200       .  S
Co311       O315   2.191       .  S
Co312       O315   2.132       .  S
Co313       O315   1.953       .  S
Co314       O315   2.097       .  S
C316        C674   1.470       .  S
C317        C821   1.500       .  S
C318        C882   1.496       .  S
C319        C642   1.482       .  S
O320        C328   1.230       .  A
O320       Co340   1.920       .  S
O321        C329   1.273       .  A
O321       Co341   1.997       .  S
O322        C330   1.235   1_565  A
O322       Co342   1.899       .  S
O323        C331   1.250       .  A
O323       Co343   1.932       .  S
O324        C330   1.259   1_565  A
O324       Co341   2.026       .  S
O325        C331   1.290       .  A
O325       Co340   2.099       .  S
O326        C329   1.280       .  A
O326       Co343   2.010       .  S
O327        C328   1.252       .  A
O327       Co342   2.027       .  S
C328        C965   1.502       .  S
C329        C594   1.511       .  S
C330        C677   1.455       .  S
C331        C741   1.490       .  S
O332        C345   1.263       .  A
O332       Co340   1.950       .  S
O333        C346   1.278       .  A
O333       Co341   1.855       .  S
O334        C347   1.272       .  A
O334       Co342   1.838       .  S
O335        C348   1.262       .  A
O335       Co343   1.975       .  S
O336        C348   1.282       .  A
O336       Co341   2.058       .  S
O337        C347   1.330       .  A
O337       Co340   2.158       .  S
O338        C345   1.286       .  A
O338       Co343   2.074       .  S
O339        C346   1.311       .  A
O339       Co342   2.137       .  S
Co340       O344   2.146       .  S
Co341       O344   1.937       .  S
Co342       O344   1.939       .  S
Co343       O344   2.002       .  S
C345        C661   1.500       .  S
C346        C725   1.482       .  S
C347        C853   1.498       .  S
C348        C610   1.512       .  S
O349        C357   1.281       .  A
O349       Co369   1.900   1_655  S
O350        C358   1.271       .  A
O350       Co370   2.026       .  S
O351        C359   1.269       .  A
O351       Co371   2.041       .  S
O352        C360   1.254   1_455  A
O352       Co372   2.009       .  S
O353        C359   1.251       .  A
O353       Co370   1.969       .  S
O354        C360   1.258       .  A
O354       Co369   2.010   1_655  S
O355        C358   1.251       .  A
O355       Co372   1.962   1_655  S
O356        C357   1.299       .  A
O356       Co371   2.079       .  S
C357       C1253   1.477       .  S
C358        C773   1.483       .  S
C359        C533   1.499       .  S
C360        C578   1.507       .  S
O361        C374   1.299       .  A
O361       Co369   2.085       .  S
O362        C375   1.279   1_545  A
O362       Co370   2.008       .  S
O363        C376   1.255       .  A
O363       Co371   1.996   1_455  S
O364        C377   1.262       .  A
O364       Co372   2.024       .  S
O365        C377   1.256       .  A
O365       Co370   1.981   1_455  S
O366        C376   1.246       .  A
O366       Co369   1.978       .  S
O367        C374   1.255       .  A
O367       Co372   1.891       .  S
O368        C375   1.274   1_545  A
O368       Co371   2.010       .  S
Co369       O373   1.975       .  S
Co370       O373   2.019   1_655  S
Co371       O373   2.162   1_655  S
Co372       O373   2.110       .  S
C374        C546   1.482       .  S
C375        C562   1.502       .  S
C376       C1458   1.493       .  S
C377        C690   1.503       .  S
O378        C386   1.280       .  A
O378       Co398   2.044   1_455  S
O379        C387   1.269   1_455  A
O379       Co399   2.022       .  S
O380        C388   1.269       .  A
O380       Co400   2.011       .  S
O381        C389   1.298       .  A
O381       Co401   2.134       .  S
O382        C388   1.258       .  A
O382       Co399   1.962       .  S
O383        C389   1.247       .  A
O383       Co398   1.921       .  S
O384        C387   1.279       .  A
O384       Co401   2.054       .  S
O385        C386   1.266       .  A
O385       Co400   1.964       .  S
C386       C1333   1.505       .  S
C387        C757   1.525       .  S
C388        C514   1.484       .  S
C389        C581   1.495       .  S
O390        C403   1.295       .  A
O390       Co398   2.102       .  S
O391        C404   1.272   1_455  A
O391       Co399   2.056       .  S
O392        C405   1.256       .  A
O392       Co400   2.044   1_655  S
O393        C406   1.310       .  A
O393       Co401   2.143       .  S
O394        C406   1.264   1_455  A
O394       Co399   1.848       .  S
O395        C405   1.243       .  A
O395       Co398   1.963       .  S
O396        C403   1.256       .  A
O396       Co401   1.859       .  S
O397        C404   1.256       .  A
O397       Co400   1.967   1_655  S
Co398       O402   2.104   1_655  S
Co399       O402   1.987       .  S
Co400       O402   2.116       .  S
Co401       O402   1.992   1_655  S
C403        C498   1.458       .  S
C404        C565   1.496       .  S
C405       C1157   1.516       .  S
C406        C706   1.484       .  S
O407        C415   1.262       .  A
O407       Co427   1.969       .  S
O408        C416   1.231       .  A
O408       Co428   1.967       .  S
O409        C417   1.257       .  A
O409       Co429   1.948   1_565  S
O410        C418   1.264       .  A
O410       Co430   1.992       .  S
O411        C417   1.288   1_545  A
O411       Co428   2.075       .  S
O412        C418   1.257       .  A
O412       Co427   2.004       .  S
O413        C416   1.244       .  A
O413       Co430   2.055       .  S
O414        C415   1.268       .  A
O414       Co429   2.007       .  S
C415       C1477   1.481       .  S
C416        C597   1.501       .  S
C417        C466   1.491       .  S
C418        C549   1.492       .  S
O419        C432   1.257       .  A
O419       Co427   1.977       .  S
O420        C433   1.259       .  A
O420       Co428   2.004       .  S
O421        C434   1.237       .  A
O421       Co429   1.954       .  S
O422        C435   1.270       .  A
O422       Co430   2.002       .  S
O423        C435   1.281       .  A
O423       Co428   1.996       .  S
O424        C434   1.248       .  A
O424       Co427   1.978       .  S
O425        C432   1.266       .  A
O425       Co430   2.013       .  S
O426        C433   1.257       .  A
O426       Co429   2.011       .  S
Co427       O431   2.117       .  S
Co428       O431   1.992       .  S
Co429       O431   2.103       .  S
Co430       O431   2.185       .  S
C432        C485   1.476       .  S
C433        C530   1.500       .  S
C434       C1237   1.465       .  S
C435        C645   1.498       .  S
O436        C444   1.260       .  A
O436       Co456   2.026       .  S
O437        C445   1.270       .  A
O437       Co457   1.983       .  S
O438        C446   1.258       .  A
O438       Co458   1.935       .  S
O439        C447   1.238       .  A
O439       Co459   1.935       .  S
O440        C446   1.286       .  A
O440       Co457   2.065       .  S
O441        C447   1.273       .  A
O441       Co456   2.072       .  S
O442        C445   1.268       .  A
O442       Co459   1.982       .  S
O443        C444   1.286       .  A
O443       Co458   1.998       .  S
C444       C1346   1.489       .  S
C445        C629   1.465       .  S
C446        C482   1.501       .  S
C447        C517   1.485       .  S
O448        C461   1.271       .  A
O448       Co456   1.948       .  S
O449        C462   1.242       .  A
O449       Co457   1.921       .  S
O450        C463   1.285       .  A
O450       Co458   1.945       .  S
O451        C464   1.248       .  A
O451       Co459   1.975       .  S
O452        C464   1.265       .  A
O452       Co457   2.006       .  S
O453        C463   1.320       .  A
O453       Co456   2.162       .  S
O454        C461   1.299       .  A
O454       Co459   2.110       .  S
O455        C462   1.271       .  A
O455       Co458   2.075       .  S
Co456       O460   2.181       .  S
Co457       O460   2.037       .  S
Co458       O460   1.874       .  S
Co459       O460   2.004       .  S
C461        C469   1.511       .  S
C462        C501   1.459       .  S
C463       C1141   1.494       .  S
C464        C613   1.488       .  S
C465        C466   1.400       .  A
C465        C470   1.415       .  A
C465        H472   1.076       .  S
C466        C467   1.422       .  A
C467        C468   1.403       .  A
C467        C474   1.521       .  S
C468        C469   1.408       .  A
C468        H473   1.082       .  S
C469        C470   1.423       .  A
C470        C471   1.501       .  S
C471        F475   1.384       .  S
C471        F476   1.373       .  S
C471        F477   1.381       .  S
C474        F478   1.375       .  S
C474        F479   1.383       .  S
C474        F480   1.385       .  S
C481        C482   1.412       .  A
C481        C486   1.411       .  A
C481        H488   1.081       .  S
C482        C483   1.433       .  A
C483        C484   1.405       .  A
C483        C490   1.526       .  S
C484        C485   1.394       .  A
C484        H489   1.081       .  S
C485        C486   1.411       .  A
C486        C487   1.515       .  S
C487        F491   1.385       .  S
C487        F492   1.383       .  S
C487        F493   1.377       .  S
C490        F494   1.383       .  S
C490        F495   1.382       .  S
C490        F496   1.384       .  S
C497        C498   1.399       .  A
C497        C502   1.406       .  A
C497        H504   1.084       .  S
C498        C499   1.415       .  A
C499        C500   1.398       .  A
C499        C506   1.521       .  S
C500        C501   1.399       .  A
C500        H505   1.084       .  S
C501        C502   1.418       .  A
C502        C503   1.516       .  S
C503        F507   1.385       .  S
C503        F508   1.380       .  S
C503        F509   1.383       .  S
C506        F510   1.380       .  S
C506        F511   1.383       .  S
C506        F512   1.384       .  S
C513        C514   1.400       .  A
C513        C518   1.400       .  A
C513        H520   1.084       .  S
C514        C515   1.421       .  A
C515        C516   1.413       .  A
C515        C522   1.518       .  S
C516        C517   1.406       .  A
C516        H521   1.084       .  S
C517        C518   1.412       .  A
C518        C519   1.498       .  S
C519        F523   1.385       .  S
C519        F524   1.381       .  S
C519        F525   1.370       .  S
C522        F526   1.382       .  S
C522        F527   1.381       .  S
C522        F528   1.385       .  S
C529        C530   1.402       .  A
C529        C534   1.413       .  A
C529        H536   1.083       .  S
C530        C531   1.428       .  A
C531        C532   1.410       .  A
C531        C538   1.516   1_545  S
C532        C533   1.397       .  A
C532        H537   1.079       .  S
C533        C534   1.416       .  A
C534        C535   1.498       .  S
C535        F539   1.385       .  S
C535        F540   1.383       .  S
C535        F541   1.380       .  S
C538        F542   1.377       .  S
C538        F543   1.383       .  S
C538        F544   1.383       .  S
C545        C546   1.400       .  A
C545        C550   1.418       .  A
C545        H552   1.083       .  S
C546        C547   1.429       .  A
C547        C548   1.397       .  A
C547        C554   1.522       .  S
C548        C549   1.394       .  A
C548        H553   1.085       .  S
C549        C550   1.428       .  A
C550        C551   1.515       .  S
C551        F555   1.385       .  S
C551        F556   1.382       .  S
C551        F557   1.383       .  S
C554        F558   1.377       .  S
C554        F559   1.383       .  S
C554        F560   1.384       .  S
C561        C562   1.406   1_455  A
C561        C566   1.411       .  A
C561        H568   1.082       .  S
C562        C563   1.418       .  A
C563        C564   1.420       .  A
C563        C570   1.510       .  S
C564        C565   1.407       .  A
C564        H569   1.083       .  S
C565        C566   1.417   1_655  A
C566        C567   1.517       .  S
C567        F571   1.385       .  S
C567        F572   1.382       .  S
C567        F573   1.380       .  S
C570        F574   1.383       .  S
C570        F575   1.382       .  S
C570        F576   1.385       .  S
C577        C578   1.404   1_455  A
C577        C582   1.412       .  A
C577        H584   1.083       .  S
C578        C579   1.420       .  A
C579        C580   1.413       .  A
C579        C586   1.498       .  S
C580        C581   1.399       .  A
C580        H585   1.081       .  S
C581        C582   1.426   1_655  A
C582        C583   1.521       .  S
C583        F587   1.385       .  S
C583        F588   1.381       .  S
C583        F589   1.382       .  S
C586        F590   1.383       .  S
C586        F591   1.373       .  S
C586        F592   1.385       .  S
C593        C594   1.420       .  A
C593        C598   1.425   1_565  A
C593        H600   1.081       .  S
C594        C595   1.430       .  A
C595        C596   1.397   1_565  A
C595        C602   1.532       .  S
C596        C597   1.399       .  A
C596        H601   1.072       .  S
C597        C598   1.413       .  A
C598        C599   1.513       .  S
C599        F603   1.384       .  S
C599        F604   1.383       .  S
C599        F605   1.383       .  S
C602        F606   1.384       .  S
C602        F607   1.383       .  S
C602        F608   1.386       .  S
C609        C610   1.406       .  A
C609        C614   1.396       .  A
C609        H616   1.082       .  S
C610        C611   1.418       .  A
C611        C612   1.411       .  A
C611        C618   1.497       .  S
C612        C613   1.407       .  A
C612        H617   1.084       .  S
C613        C614   1.431       .  A
C614        C615   1.538       .  S
C615        F619   1.375       .  S
C615        F620   1.374       .  S
C615        F621   1.386       .  S
C618        F622   1.371       .  S
C618        F623   1.381       .  S
C618        F624   1.385       .  S
C625        C626   1.408       .  A
C625        C630   1.402       .  A
C625        H632   1.082       .  S
C626        C627   1.421       .  A
C627        C628   1.403       .  A
C627        C634   1.515       .  S
C628        C629   1.400       .  A
C628        H633   1.078       .  S
C629        C630   1.405       .  A
C630        C631   1.506       .  S
C631        F635   1.383       .  S
C631        F636   1.378       .  S
C631        F637   1.381       .  S
C634        F638   1.383       .  S
C634        F639   1.375       .  S
C634        F640   1.379       .  S
C641        C642   1.390       .  A
C641        C646   1.396       .  A
C641        H648   1.083       .  S
C642        C643   1.420       .  A
C643        C644   1.420       .  A
C643        C650   1.510       .  S
C644        C645   1.408       .  A
C644        H649   1.084       .  S
C645        C646   1.432       .  A
C646        C647   1.521       .  S
C647        F651   1.385       .  S
C647        F652   1.369       .  S
C647        F653   1.379       .  S
C650        F654   1.381       .  S
C650        F655   1.384       .  S
C650        F656   1.384       .  S
C657        C658   1.414       .  A
C657        C662   1.410       .  A
C657        H664   1.081       .  S
C658        C659   1.418       .  A
C659        C660   1.417       .  A
C659        C666   1.517       .  S
C660        C661   1.412       .  A
C660        H665   1.081       .  S
C661        C662   1.416       .  A
C662        C663   1.521       .  S
C663        F667   1.385       .  S
C663        F668   1.383       .  S
C663        F669   1.382       .  S
C666        F670   1.383       .  S
C666        F671   1.383       .  S
C666        F672   1.385       .  S
C673        C674   1.396       .  A
C673        C678   1.399       .  A
C673        H680   1.083       .  S
C674        C675   1.417       .  A
C675        C676   1.397       .  A
C675        C682   1.501       .  S
C676        C677   1.390       .  A
C676        H681   1.084       .  S
C677        C678   1.419       .  A
C678        C679   1.515       .  S
C679        F683   1.385       .  S
C679        F684   1.380       .  S
C679        F685   1.371       .  S
C682        F686   1.381       .  S
C682        F687   1.379       .  S
C682        F688   1.386       .  S
C689        C690   1.407   1_565  A
C689        C694   1.410       .  A
C689        H696   1.079       .  S
C690        C691   1.425       .  A
C691        C692   1.407       .  A
C691        C698   1.511       .  S
C692        C693   1.400   1_545  A
C692        H697   1.084       .  S
C693        C694   1.418       .  A
C694        C695   1.514       .  S
C695        F699   1.381       .  S
C695        F700   1.376       .  S
C695        F701   1.383       .  S
C698        F702   1.373       .  S
C698        F703   1.383       .  S
C698        F704   1.385       .  S
C705        C706   1.409       .  A
C705        C710   1.420       .  A
C705        H712   1.083       .  S
C706        C707   1.418       .  A
C707        C708   1.388       .  A
C707        C714   1.520   1_655  S
C708        C709   1.407       .  A
C708        H713   1.081   1_655  S
C709        C710   1.421       .  A
C710        C711   1.516       .  S
C711        F715   1.385       .  S
C711        F716   1.381       .  S
C711        F717   1.384       .  S
C714        F718   1.383       .  S
C714        F719   1.372   1_455  S
C714        F720   1.386       .  S
C721        C722   1.395       .  A
C721        C726   1.392       .  A
C721        H728   1.084       .  S
C722        C723   1.427       .  A
C723        C724   1.415       .  A
C723        C730   1.515       .  S
C724        C725   1.401       .  A
C724        H729   1.083       .  S
C725        C726   1.412       .  A
C726        C727   1.499       .  S
C727        F731   1.386       .  S
C727        F732   1.378       .  S
C727        F733   1.384       .  S
C730        F734   1.376   1_565  S
C730        F735   1.381       .  S
C730        F736   1.385   1_565  S
C737        C738   1.414       .  A
C737        C742   1.417       .  A
C737        H744   1.081       .  S
C738        C739   1.426       .  A
C739        C740   1.403       .  A
C739        C746   1.526       .  S
C740        C741   1.406       .  A
C740        H745   1.084       .  S
C741        C742   1.410       .  A
C742        C743   1.508       .  S
C743        F747   1.384       .  S
C743        F748   1.381       .  S
C743        F749   1.383       .  S
C746        F750   1.384       .  S
C746        F751   1.383       .  S
C746        F752   1.385       .  S
C753        C754   1.397       .  A
C753        C758   1.422       .  A
C753        H760   1.082       .  S
C754        C755   1.440   1_655  A
C755        C756   1.418       .  A
C755        C762   1.527       .  S
C756        C757   1.401   1_455  A
C756        H761   1.082       .  S
C757        C758   1.444       .  A
C758        C759   1.524       .  S
C759        F763   1.385       .  S
C759        F764   1.377       .  S
C759        F765   1.383       .  S
C762        F766   1.378       .  S
C762        F767   1.383       .  S
C762        F768   1.385       .  S
C769        C770   1.418       .  A
C769        C774   1.408       .  A
C769        H776   1.076       .  S
C770        C771   1.417   1_655  A
C771        C772   1.403       .  A
C771        C778   1.517       .  S
C772        C773   1.413   1_455  A
C772        H777   1.081       .  S
C773        C774   1.410       .  A
C774        C775   1.519       .  S
C775        F779   1.383       .  S
C775        F780   1.379       .  S
C775        F781   1.384       .  S
C778        F782   1.383       .  S
C778        F783   1.378       .  S
C778        F784   1.385       .  S
C785        C786   1.406   1_655  A
C785        C790   1.407       .  A
C785        H792   1.084       .  S
C786        C787   1.414       .  A
C787        C788   1.413       .  A
C787        C794   1.518       .  S
C788        C789   1.411       .  A
C788        H793   1.083       .  S
C789        C790   1.418   1_455  A
C790        C791   1.519       .  S
C791        F795   1.385       .  S
C791        F796   1.381       .  S
C791        F797   1.378       .  S
C794        F798   1.383       .  S
C794        F799   1.384       .  S
C794        F800   1.385       .  S
C801        C802   1.414       .  A
C801        C806   1.418       .  A
C801        H808   1.079       .  S
C802        C803   1.419   1_655  A
C803        C804   1.420       .  A
C803        C810   1.517       .  S
C804        C805   1.412   1_455  A
C804        H809   1.081       .  S
C805        C806   1.418       .  A
C806        C807   1.521       .  S
C807        F811   1.385       .  S
C807        F812   1.379       .  S
C807        F813   1.383       .  S
C810        F814   1.384       .  S
C810        F815   1.382       .  S
C810        F816   1.384       .  S
C817        C818   1.388       .  A
C817        C822   1.408       .  A
C817        H824   1.084       .  S
C818        C819   1.421       .  A
C819        C820   1.419       .  A
C819        C826   1.517       .  S
C820        C821   1.406       .  A
C820        H825   1.083       .  S
C821        C822   1.427       .  A
C822        C823   1.502       .  S
C823        F827   1.383       .  S
C823        F828   1.381       .  S
C823        F829   1.375       .  S
C826        F830   1.383       .  S
C826        F831   1.383       .  S
C826        F832   1.385       .  S
C833        C834   1.398       .  A
C833        C838   1.408       .  A
C833        H840   1.083       .  S
C834        C835   1.424       .  A
C835        C836   1.413       .  A
C835        C842   1.522       .  S
C836        C837   1.402       .  A
C836        H841   1.083       .  S
C837        C838   1.423       .  A
C838        C839   1.514       .  S
C839        F843   1.385       .  S
C839        F844   1.382       .  S
C839        F845   1.381       .  S
C842        F846   1.383       .  S
C842        F847   1.381       .  S
C842        F848   1.384       .  S
C849        C850   1.413       .  A
C849        C854   1.422       .  A
C849        H856   1.078       .  S
C850        C851   1.418       .  A
C851        C852   1.407       .  A
C851        C858   1.522       .  S
C852        C853   1.411       .  A
C852        H857   1.084       .  S
C853        C854   1.411       .  A
C854        C855   1.511       .  S
C855        F859   1.379       .  S
C855        F860   1.376       .  S
C855        F861   1.383       .  S
C858        F862   1.381   1_565  S
C858        F863   1.381       .  S
C858        F864   1.385       .  S
C865        C866   1.410       .  A
C865        C870   1.433       .  A
C865        H872   1.082       .  S
C866        C867   1.420       .  A
C867        C868   1.380       .  A
C867        C874   1.499       .  S
C868        C869   1.390       .  A
C868        H873   1.085       .  S
C869        C870   1.433       .  A
C870        C871   1.510       .  S
C871        F875   1.384       .  S
C871        F876   1.382       .  S
C871        F877   1.383       .  S
C874        F878   1.373       .  S
C874        F879   1.374       .  S
C874        F880   1.385       .  S
C881        C882   1.416       .  A
C881        C886   1.412       .  A
C881        H888   1.082       .  S
C882        C883   1.419       .  A
C883        C884   1.403       .  A
C883        C890   1.524       .  S
C884        C885   1.409       .  A
C884        H889   1.079       .  S
C885        C886   1.412       .  A
C886        C887   1.515       .  S
C887        F891   1.385       .  S
C887        F892   1.380       .  S
C887        F893   1.382       .  S
C890        F894   1.385       .  S
C890        F895   1.381       .  S
C890        F896   1.383       .  S
C897        C898   1.397       .  A
C897        C902   1.404       .  A
C897        H904   1.083       .  S
C898        C899   1.441       .  A
C899        C900   1.419       .  A
C899        C906   1.523       .  S
C900        C901   1.396       .  A
C900        H905   1.082       .  S
C901        C902   1.432       .  A
C902        C903   1.523       .  S
C903        F907   1.385       .  S
C903        F908   1.383       .  S
C903        F909   1.379       .  S
C906        F910   1.377       .  S
C906        F911   1.382       .  S
C906        F912   1.385       .  S
C913        C914   1.399       .  A
C913        C918   1.403       .  A
C913        H920   1.084       .  S
C914        C915   1.410       .  A
C915        C916   1.389       .  A
C915        C922   1.524       .  S
C916        C917   1.402       .  A
C916        H921   1.083       .  S
C917        C918   1.418       .  A
C918        C919   1.519       .  S
C919        F923   1.385       .  S
C919        F924   1.384       .  S
C919        F925   1.383       .  S
C922        F926   1.384       .  S
C922        F927   1.382       .  S
C922        F928   1.385       .  S
C929        C930   1.411       .  A
C929        C934   1.393       .  A
C929        H936   1.082       .  S
C930        C931   1.422       .  A
C931        C932   1.402       .  A
C931        C938   1.521       .  S
C932        C933   1.397       .  A
C932        H937   1.081       .  S
C933        C934   1.404       .  A
C934        C935   1.518       .  S
C935        F939   1.385       .  S
C935        F940   1.379       .  S
C935        F941   1.380       .  S
C938        F942   1.382       .  S
C938        F943   1.382       .  S
C938        F944   1.385       .  S
C945        C946   1.402       .  A
C945        C950   1.411       .  A
C945        H952   1.082       .  S
C946        C947   1.429       .  A
C947        C948   1.412       .  A
C947        C954   1.524       .  S
C948        C949   1.403       .  A
C948        H953   1.081       .  S
C949        C950   1.425       .  A
C950        C951   1.517       .  S
C951        F955   1.385       .  S
C951        F956   1.383       .  S
C951        F957   1.382       .  S
C954        F958   1.383       .  S
C954        F959   1.381   1_455  S
C954        F960   1.385       .  S
C961        C962   1.393       .  A
C961        C966   1.397       .  A
C961        H968   1.077       .  S
C962        C963   1.424       .  A
C963        C964   1.425       .  A
C963        C970   1.510   1_565  S
C964        C965   1.410       .  A
C964        H969   1.084       .  S
C965        C966   1.431       .  A
C966        C967   1.531       .  S
C967        F971   1.377       .  S
C967        F972   1.383       .  S
C967        F973   1.381       .  S
C970        F974   1.383       .  S
C970        F975   1.382       .  S
C970        F976   1.381       .  S
C977        C978   1.407       .  A
C977        C982   1.398       .  A
C977        H984   1.080       .  S
C978        C979   1.421       .  A
C979        C980   1.421       .  A
C979        C986   1.517       .  S
C980        C981   1.409       .  A
C980        H985   1.069       .  S
C981        C982   1.428       .  A
C982        C983   1.527       .  S
C983        F987   1.385       .  S
C983        F988   1.384       .  S
C983        F989   1.382       .  S
C986        F990   1.382       .  S
C986        F991   1.383       .  S
C986        F992   1.384       .  S
C993        C994   1.411       .  A
C993        C998   1.405   1_655  A
C993       H1000   1.084       .  S
C994        C995   1.410       .  A
C995        C996   1.410   1_655  A
C995       C1002   1.515   1_565  S
C996        C997   1.408       .  A
C996       H1001   1.083       .  S
C997        C998   1.411       .  A
C998        C999   1.517       .  S
C999       F1003   1.385       .  S
C999       F1004   1.381       .  S
C999       F1005   1.383       .  S
C1002      F1006   1.384       .  S
C1002      F1007   1.379       .  S
C1002      F1008   1.381   1_655  S
C1009      C1010   1.411       .  A
C1009      C1014   1.402       .  A
C1009      H1016   1.073       .  S
C1010      C1011   1.407       .  A
C1011      C1012   1.398       .  A
C1011      C1018   1.521       .  S
C1012      C1013   1.421       .  A
C1012      H1017   1.084       .  S
C1013      C1014   1.407       .  A
C1014      C1015   1.510       .  S
C1015      F1019   1.385       .  S
C1015      F1020   1.373       .  S
C1015      F1021   1.383       .  S
C1018      F1022   1.383       .  S
C1018      F1023   1.383       .  S
C1018      F1024   1.384       .  S
C1025      C1026   1.397       .  A
C1025      C1030   1.412       .  A
C1025      H1032   1.084       .  S
C1026      C1027   1.416       .  A
C1027      C1028   1.399       .  A
C1027      C1034   1.510       .  S
C1028      C1029   1.396       .  A
C1028      H1033   1.074       .  S
C1029      C1030   1.432       .  A
C1030      C1031   1.508       .  S
C1031      F1035   1.383       .  S
C1031      F1036   1.382       .  S
C1031      F1037   1.379       .  S
C1034      F1038   1.380       .  S
C1034      F1039   1.378       .  S
C1034      F1040   1.383       .  S
C1041      C1042   1.405       .  A
C1041      C1046   1.418       .  A
C1041      H1048   1.081       .  S
C1042      C1043   1.414       .  A
C1043      C1044   1.402       .  A
C1043      C1050   1.512       .  S
C1044      C1045   1.407       .  A
C1044      H1049   1.085       .  S
C1045      C1046   1.420       .  A
C1046      C1047   1.513       .  S
C1047      F1051   1.384       .  S
C1047      F1052   1.381       .  S
C1047      F1053   1.378       .  S
C1050      F1054   1.378       .  S
C1050      F1055   1.377       .  S
C1050      F1056   1.382       .  S
C1057      C1058   1.404       .  A
C1057      C1062   1.406   1_455  A
C1057      H1064   1.084       .  S
C1058      C1059   1.426       .  A
C1059      C1060   1.415   1_455  A
C1059      C1066   1.516       .  S
C1060      C1061   1.404       .  A
C1060      H1065   1.084       .  S
C1061      C1062   1.422       .  A
C1062      C1063   1.520       .  S
C1063      F1067   1.385       .  S
C1063      F1068   1.383       .  S
C1063      F1069   1.378       .  S
C1066      F1070   1.383       .  S
C1066      F1071   1.381       .  S
C1066      F1072   1.385       .  S
C1073      C1074   1.408       .  A
C1073      C1078   1.411       .  A
C1073      H1080   1.082       .  S
C1074      C1075   1.423       .  A
C1075      C1076   1.411       .  A
C1075      C1082   1.522       .  S
C1076      C1077   1.410       .  A
C1076      H1081   1.083       .  S
C1077      C1078   1.414       .  A
C1078      C1079   1.504       .  S
C1079      F1083   1.385       .  S
C1079      F1084   1.383       .  S
C1079      F1085   1.380       .  S
C1082      F1086   1.383       .  S
C1082      F1087   1.383       .  S
C1082      F1088   1.385       .  S
C1089      C1090   1.393       .  A
C1089      C1094   1.396       .  A
C1089      H1096   1.084       .  S
C1090      C1091   1.415       .  A
C1091      C1092   1.412       .  A
C1091      C1098   1.517       .  S
C1092      C1093   1.404       .  A
C1092      H1097   1.082       .  S
C1093      C1094   1.418       .  A
C1094      C1095   1.516       .  S
C1095      F1099   1.385       .  S
C1095      F1100   1.383       .  S
C1095      F1101   1.375       .  S
C1098      F1102   1.383       .  S
C1098      F1103   1.383       .  S
C1098      F1104   1.382       .  S
C1105      C1106   1.408       .  A
C1105      C1110   1.417       .  A
C1105      H1112   1.082       .  S
C1106      C1107   1.434       .  A
C1107      C1108   1.396   1_554  A
C1107      C1114   1.528       .  S
C1108      C1109   1.394       .  A
C1108      H1113   1.083       .  S
C1109      C1110   1.414   1_556  A
C1110      C1111   1.510       .  S
C1111      F1115   1.384       .  S
C1111      F1116   1.378       .  S
C1111      F1117   1.379   1_554  S
C1114      F1118   1.382       .  S
C1114      F1119   1.383       .  S
C1114      F1120   1.385   1_554  S
C1121      C1122   1.408       .  A
C1121      C1126   1.410   1_554  A
C1121      H1128   1.079       .  S
C1122      C1123   1.423       .  A
C1123      C1124   1.383       .  A
C1123      C1130   1.525       .  S
C1124      C1125   1.389   1_554  A
C1124      H1129   1.081   1_554  S
C1125      C1126   1.407       .  A
C1126      C1127   1.513       .  S
C1127      F1131   1.384   1_556  S
C1127      F1132   1.383       .  S
C1127      F1133   1.383       .  S
C1130      F1134   1.377       .  S
C1130      F1135   1.380       .  S
C1130      F1136   1.386       .  S
C1137      C1138   1.387       .  A
C1137      C1142   1.413       .  A
C1137      H1144   1.082       .  S
C1138      C1139   1.414       .  A
C1139      C1140   1.402       .  A
C1139      C1146   1.519       .  S
C1140      C1141   1.400       .  A
C1140      H1145   1.083       .  S
C1141      C1142   1.443       .  A
C1142      C1143   1.512       .  S
C1143      F1147   1.386       .  S
C1143      F1148   1.375       .  S
C1143      F1149   1.372       .  S
C1146      F1150   1.362       .  S
C1146      F1151   1.382       .  S
C1146      F1152   1.383       .  S
C1153      C1154   1.418       .  A
C1153      C1158   1.426       .  A
C1153      H1160   1.079       .  S
C1154      C1155   1.421       .  A
C1155      C1156   1.407       .  A
C1155      C1162   1.504       .  S
C1156      C1157   1.405       .  A
C1156      H1161   1.081       .  S
C1157      C1158   1.423       .  A
C1158      C1159   1.517       .  S
C1159      F1163   1.385       .  S
C1159      F1164   1.382   1_655  S
C1159      F1165   1.383       .  S
C1162      F1166   1.378       .  S
C1162      F1167   1.383       .  S
C1162      F1168   1.385       .  S
C1169      C1170   1.412   1_554  A
C1169      C1174   1.424       .  A
C1169      H1176   1.084   1_554  S
C1170      C1171   1.426   1_565  A
C1171      C1172   1.401   1_556  A
C1171      C1178   1.530       .  S
C1172      C1173   1.411       .  A
C1172      H1177   1.081       .  S
C1173      C1174   1.430   1_545  A
C1174      C1175   1.515       .  S
C1175      F1179   1.382       .  S
C1175      F1180   1.381       .  S
C1175      F1181   1.377       .  S
C1178      F1182   1.380       .  S
C1178      F1183   1.379   1_545  S
C1178      F1184   1.385       .  S
C1185      C1186   1.413       .  A
C1185      C1190   1.410   1_554  A
C1185      H1192   1.083       .  S
C1186      C1187   1.417       .  A
C1187      C1188   1.400       .  A
C1187      C1194   1.518       .  S
C1188      C1189   1.401   1_554  A
C1188      H1193   1.078       .  S
C1189      C1190   1.408       .  A
C1190      C1191   1.515       .  S
C1191      F1195   1.385       .  S
C1191      F1196   1.383       .  S
C1191      F1197   1.383       .  S
C1194      F1198   1.380       .  S
C1194      F1199   1.381       .  S
C1194      F1200   1.380       .  S
C1201      C1202   1.416       .  A
C1201      C1206   1.380       .  A
C1201      H1208   1.076       .  S
C1202      C1203   1.405       .  A
C1203      C1204   1.397       .  A
C1203      C1210   1.518       .  S
C1204      C1205   1.413       .  A
C1204      H1209   1.083       .  S
C1205      C1206   1.394       .  A
C1206      C1207   1.522       .  S
C1207      F1211   1.384       .  S
C1207      F1212   1.383       .  S
C1207      F1213   1.382       .  S
C1210      F1214   1.382       .  S
C1210      F1215   1.384       .  S
C1210      F1216   1.385       .  S
C1217      C1218   1.393       .  A
C1217      C1222   1.391       .  A
C1217      H1224   1.085       .  S
C1218      C1219   1.402       .  A
C1219      C1220   1.396       .  A
C1219      C1226   1.516       .  S
C1220      C1221   1.407       .  A
C1220      H1225   1.084       .  S
C1221      C1222   1.417       .  A
C1222      C1223   1.514       .  S
C1223      F1227   1.385       .  S
C1223      F1228   1.381       .  S
C1223      F1229   1.375       .  S
C1226      F1230   1.383       .  S
C1226      F1231   1.382       .  S
C1226      F1232   1.385       .  S
C1233      C1234   1.401       .  A
C1233      C1238   1.395       .  A
C1233      H1240   1.081       .  S
C1234      C1235   1.427       .  A
C1235      C1236   1.396       .  A
C1235      C1242   1.520       .  S
C1236      C1237   1.396       .  A
C1236      H1241   1.083       .  S
C1237      C1238   1.418       .  A
C1238      C1239   1.518       .  S
C1239      F1243   1.385       .  S
C1239      F1244   1.381       .  S
C1239      F1245   1.381       .  S
C1242      F1246   1.378       .  S
C1242      F1247   1.383       .  S
C1242      F1248   1.385       .  S
C1249      C1250   1.408       .  A
C1249      C1254   1.409       .  A
C1249      H1256   1.082       .  S
C1250      C1251   1.414       .  A
C1251      C1252   1.405       .  A
C1251      C1258   1.505       .  S
C1252      C1253   1.403       .  A
C1252      H1257   1.083       .  S
C1253      C1254   1.413       .  A
C1254      C1255   1.516       .  S
C1255      F1259   1.385   1_655  S
C1255      F1260   1.381   1_655  S
C1255      F1261   1.383   1_655  S
C1258      F1262   1.380       .  S
C1258      F1263   1.381       .  S
C1258      F1264   1.385       .  S
C1265      C1266   1.395       .  A
C1265      C1270   1.398   1_554  A
C1265      H1272   1.083       .  S
C1266      C1267   1.430       .  A
C1267      C1268   1.422   1_554  A
C1267      C1274   1.511       .  S
C1268      C1269   1.404       .  A
C1268      H1273   1.082       .  S
C1269      C1270   1.430       .  A
C1270      C1271   1.508       .  S
C1271      F1275   1.383       .  S
C1271      F1276   1.378       .  S
C1271      F1277   1.377       .  S
C1274      F1278   1.378       .  S
C1274      F1279   1.380       .  S
C1274      F1280   1.385       .  S
C1281      C1282   1.406   1_554  A
C1281      C1286   1.414       .  A
C1281      H1288   1.082   1_554  S
C1282      C1283   1.407       .  A
C1283      C1284   1.404   1_556  A
C1283      C1290   1.515       .  S
C1284      C1285   1.413       .  A
C1284      H1289   1.082       .  S
C1285      C1286   1.423       .  A
C1286      C1287   1.518       .  S
C1287      F1291   1.385       .  S
C1287      F1292   1.376       .  S
C1287      F1293   1.379       .  S
C1290      F1294   1.381       .  S
C1290      F1295   1.382       .  S
C1290      F1296   1.384       .  S
C1297      C1298   1.398       .  A
C1297      C1302   1.408       .  A
C1297      H1304   1.082       .  S
C1298      C1299   1.417       .  A
C1299      C1300   1.401       .  A
C1299      C1306   1.507       .  S
C1300      C1301   1.400       .  A
C1300      H1305   1.084       .  S
C1301      C1302   1.435       .  A
C1302      C1303   1.525       .  S
C1303      F1307   1.384       .  S
C1303      F1308   1.384       .  S
C1303      F1309   1.383       .  S
C1306      F1310   1.383       .  S
C1306      F1311   1.382       .  S
C1306      F1312   1.384       .  S
C1313      C1314   1.393       .  A
C1313      C1318   1.395   1_655  A
C1313      H1320   1.084       .  S
C1314      C1315   1.425       .  A
C1315      C1316   1.386   1_655  A
C1315      C1322   1.507       .  S
C1316      C1317   1.381       .  A
C1316      H1321   1.086       .  S
C1317      C1318   1.419       .  A
C1318      C1319   1.519       .  S
C1319      F1323   1.385   1_455  S
C1319      F1324   1.376       .  S
C1319      F1325   1.369       .  S
C1322      F1326   1.362       .  S
C1322      F1327   1.377       .  S
C1322      F1328   1.386       .  S
C1329      C1330   1.405       .  A
C1329      C1334   1.413       .  A
C1329      H1336   1.067       .  S
C1330      C1331   1.419       .  A
C1331      C1332   1.416       .  A
C1331      C1338   1.500       .  S
C1332      C1333   1.407       .  A
C1332      H1337   1.083       .  S
C1333      C1334   1.421       .  A
C1334      C1335   1.521       .  S
C1335      F1339   1.380       .  S
C1335      F1340   1.381   1_455  S
C1335      F1341   1.383   1_455  S
C1338      F1342   1.371       .  S
C1338      F1343   1.381       .  S
C1338      F1344   1.384       .  S
C1345      C1346   1.391       .  A
C1345      C1350   1.395       .  A
C1345      H1352   1.082       .  S
C1346      C1347   1.444       .  A
C1347      C1348   1.412       .  A
C1347      C1354   1.534       .  S
C1348      C1349   1.401       .  A
C1348      H1353   1.085       .  S
C1349      C1350   1.433       .  A
C1350      C1351   1.515       .  S
C1351      F1355   1.385       .  S
C1351      F1356   1.384       .  S
C1351      F1357   1.373       .  S
C1354      F1358   1.381       .  S
C1354      F1359   1.376       .  S
C1354      F1360   1.383       .  S
C1361      C1362   1.395       .  A
C1361      C1366   1.393   1_544  A
C1361      H1368   1.071       .  S
C1362      C1363   1.413       .  A
C1363      C1364   1.428   1_544  A
C1363      C1370   1.511       .  S
C1364      C1365   1.416       .  A
C1364      H1369   1.082       .  S
C1365      C1366   1.428       .  A
C1366      C1367   1.527       .  S
C1367      F1371   1.384   1_565  S
C1367      F1372   1.372       .  S
C1367      F1373   1.371       .  S
C1370      F1374   1.384       .  S
C1370      F1375   1.383       .  S
C1370      F1376   1.384   1_554  S
C1377      C1378   1.422       .  A
C1377      C1382   1.415   1_554  A
C1377      H1384   1.077       .  S
C1378      C1379   1.414   1_554  A
C1379      C1380   1.426       .  A
C1379      C1386   1.514       .  S
C1380      C1381   1.426       .  A
C1380      H1385   1.082       .  S
C1381      C1382   1.408       .  A
C1382      C1383   1.515   1_556  S
C1383      F1387   1.384       .  S
C1383      F1388   1.382       .  S
C1383      F1389   1.384   1_554  S
C1386      F1390   1.383   1_556  S
C1386      F1391   1.380       .  S
C1386      F1392   1.385       .  S
C1393      C1394   1.421       .  A
C1393      C1398   1.426       .  A
C1393      H1400   1.082       .  S
C1394      C1395   1.427       .  A
C1395      C1396   1.424       .  A
C1395      C1402   1.519       .  S
C1396      C1397   1.414       .  A
C1396      H1401   1.083       .  S
C1397      C1398   1.417       .  A
C1398      C1399   1.511       .  S
C1399      F1403   1.384       .  S
C1399      F1404   1.382       .  S
C1399      F1405   1.382       .  S
C1402      F1406   1.383       .  S
C1402      F1407   1.384       .  S
C1402      F1408   1.385       .  S
C1409      C1410   1.410       .  A
C1409      C1414   1.401       .  A
C1409      H1416   1.082       .  S
C1410      C1411   1.422       .  A
C1411      C1412   1.412       .  A
C1411      C1418   1.504       .  S
C1412      C1413   1.401       .  A
C1412      H1417   1.080       .  S
C1413      C1414   1.420       .  A
C1414      C1415   1.515       .  S
C1415      F1419   1.383       .  S
C1415      F1420   1.366       .  S
C1415      F1421   1.383       .  S
C1418      F1422   1.380       .  S
C1418      F1423   1.380       .  S
C1418      F1424   1.385       .  S
C1425      C1426   1.408       .  A
C1425      C1430   1.428       .  A
C1425      H1432   1.083       .  S
C1426      C1427   1.434       .  A
C1427      C1428   1.388       .  A
C1427      C1434   1.513       .  S
C1428      C1429   1.389       .  A
C1428      H1433   1.084       .  S
C1429      C1430   1.428       .  A
C1430      C1431   1.510       .  S
C1431      F1435   1.385       .  S
C1431      F1436   1.382       .  S
C1431      F1437   1.381       .  S
C1434      F1438   1.385       .  S
C1434      F1439   1.373       .  S
C1434      F1440   1.386       .  S
C1441      C1442   1.409       .  A
C1441      C1446   1.405       .  A
C1441      H1448   1.083       .  S
C1442      C1443   1.414       .  A
C1443      C1444   1.403   1_455  A
C1443      C1450   1.522   1_545  S
C1444      C1445   1.413       .  A
C1444      H1449   1.082       .  S
C1445      C1446   1.418   1_655  A
C1446      C1447   1.521   1_455  S
C1447      F1451   1.385   1_655  S
C1447      F1452   1.383       .  S
C1447      F1453   1.384       .  S
C1450      F1454   1.382       .  S
C1450      F1455   1.381       .  S
C1450      F1456   1.384       .  S
C1457      C1458   1.410       .  A
C1457      C1462   1.412       .  A
C1457      H1464   1.080       .  S
C1458      C1459   1.420       .  A
C1459      C1460   1.412       .  A
C1459      C1466   1.519       .  S
C1460      C1461   1.406       .  A
C1460      H1465   1.082       .  S
C1461      C1462   1.414       .  A
C1462      C1463   1.516       .  S
C1463      F1467   1.384       .  S
C1463      F1468   1.383       .  S
C1463      F1469   1.382       .  S
C1466      F1470   1.383   1_455  S
C1466      F1471   1.382       .  S
C1466      F1472   1.384       .  S
C1473      C1474   1.405       .  A
C1473      C1478   1.406       .  A
C1473      H1480   1.083       .  S
C1474      C1475   1.410       .  A
C1475      C1476   1.405       .  A
C1475      C1482   1.511       .  S
C1476      C1477   1.409       .  A
C1476      H1481   1.084       .  S
C1477      C1478   1.415       .  A
C1478      C1479   1.514       .  S
C1479      F1483   1.385       .  S
C1479      F1484   1.380       .  S
C1479      F1485   1.384       .  S
C1482      F1486   1.380       .  S
C1482      F1487   1.383       .  S
C1482      F1488   1.385       .  S
