geometry optimzed in LAMMPS
_audit_creation_date              2020-11-30 
_audit_creation_method            'lammps2cif' 
_symmetry_space_group_name_H-M    'P1' 
_symmetry_Int_Tables_number       1 
_symmetry_cell_setting            triclinic 
loop_ 
_symmetry_equiv_pos_as_xyz 
  x,y,z 
_cell_length_a                    36.93510711612319 
_cell_length_b                    47.89345302206162 
_cell_length_c                    47.4753403194472 
_cell_angle_alpha                 89.5835662856803 
_cell_angle_beta                  89.88840481483413 
_cell_angle_gamma                 90.08728778062721 
loop_ 
_atom_site_label 
_atom_site_type_symbol 
_atom_site_fract_x 
_atom_site_fract_y 
_atom_site_fract_z 
_atom_site_charge 
C1          C  0.99927935  0.57886266  0.99995523     0.02800
C2          C  0.96645311  0.59381849  0.00134215    -0.13350
C3          C  0.96666609  0.62301751  0.50416304     0.00300
C4          C  0.99999235  0.63683595  0.50668463    -0.11870
C5          C  0.03283470  0.62257459  0.50396443     0.02790
C6          C  0.03235146  0.59351835  0.00059003    -0.11290
H7          H  0.94094836  0.58279812  0.99973993     0.08390
H8          H  0.00046559  0.65928991  0.50945653     0.05920
H9          H  0.05762919  0.58237170  0.99792605     0.05770
C10         C  0.99986026  0.45782381  0.49540401     0.02800
C11         C  0.03236310  0.44242024  0.49520733    -0.13350
C12         C  0.03166081  0.41308176  0.49534435     0.00300
C13         C  0.99819683  0.39934837  0.49434934    -0.11870
C14         C  0.96576196  0.41426273  0.49543141     0.02790
C15         C  0.96653800  0.44350006  0.49545556    -0.11290
H16         H  0.05813589  0.45323348  0.49538450     0.08390
H17         H  0.99719860  0.37675149  0.49345257     0.05920
H18         H  0.94133672  0.45501492  0.49644084     0.05770
Zr19       Zr  0.82129181  0.76839432  0.49827972     2.17510
O20         O  0.87565907  0.79732528  0.49709590    -0.51660
O21         O  0.85216199  0.72404261  0.49913004    -0.74860
O22         O  0.85076124  0.76946619  0.04380447    -0.81650
O23         O  0.81072663  0.76979955  0.41807329    -0.83390
O24         O  0.80854933  0.77529240  0.07826232    -0.79020
O25         O  0.85221923  0.77135627  0.45338980    -0.90650
O26         O  0.81108085  0.68892473  0.50184079    -0.76610
O27         O  0.78604398  0.74072604  0.02973108    -0.86110
O28         O  0.78685904  0.73819675  0.46913660    -0.85790
O29         O  0.78675215  0.80121070  0.02504358    -0.72550
O30         O  0.78667772  0.79846532  0.46818700    -0.84690
Zr31       Zr  0.67948241  0.77287815  0.49719172     2.26420
Zr32       Zr  0.74960249  0.77304303  0.05550032     2.06270
Zr33       Zr  0.75080214  0.76789117  0.43980824     2.10050
Zr34       Zr  0.75139002  0.71078651  0.50057357     1.78760
O35         O  0.74934512  0.80425039  0.40373323    -0.93490
O36         O  0.75048927  0.68074335  0.04218826    -0.41300
O37         O  0.71448990  0.73989059  0.47088172    -0.77930
O38         O  0.71414364  0.74228365  0.02699050    -0.96620
O39         O  0.71419844  0.80297148  0.02612734    -0.89920
O40         O  0.71528668  0.80039502  0.46593575    -0.92760
C41         C  0.84373170  0.69812650  0.50037763     1.00990
C42         C  0.84341563  0.77138633  0.42724145     1.13920
C43         C  0.84130240  0.77261007  0.06959859     1.04700
O44         O  0.74873372  0.73724436  0.09217739    -0.94920
O45         O  0.68987020  0.77305156  0.07748446    -0.90660
O46         O  0.64837104  0.77319038  0.04218023    -0.83810
C47         C  0.65713970  0.77294495  0.06834301     1.11340
O48         O  0.80517442  0.85880127  0.49188411    -0.96890
Zr49       Zr  0.75062922  0.83016266  0.49505281     1.88940
O50         O  0.64956827  0.81811488  0.49474441    -0.73540
O51         O  0.74747444  0.81190311  0.08828157    -0.52800
O52         O  0.75301609  0.86107984  0.03555487    -0.97480
O53         O  0.74937253  0.86162333  0.45443120    -0.54700
O54         O  0.69201006  0.85253490  0.49696515    -0.74060
C55         C  0.65924611  0.84387220  0.49580980     0.98280
O56         O  0.62590755  0.74285669  0.49878997    -0.62880
O57         O  0.75207319  0.72946078  0.40646463    -0.57680
O58         O  0.64960740  0.76921601  0.45199977    -0.94370
O59         O  0.69145782  0.76404528  0.41727277    -0.92790
O60         O  0.75140628  0.67933936  0.46049843    -0.93150
O61         O  0.69935746  0.67950682  0.50165775    -0.91930
C62         C  0.65859381  0.76593782  0.42610446     1.17130
H63         H  0.80230378  0.72652485  0.45777530     0.33070
H64         H  0.69809510  0.73135555  0.03880204     0.43920
H65         H  0.70017860  0.81121749  0.45338377     0.37450
H66         H  0.80269264  0.81292304  0.03593763     0.33930
H67         H  0.75740292  0.66206555  0.03518196     0.25720
H68         H  0.75244494  0.80339147  0.10694420     0.31650
H69         H  0.74256723  0.87893834  0.02881231     0.37560
H70         H  0.76051057  0.66138266  0.46812116     0.32020
H71         H  0.75604476  0.73850581  0.38789238     0.30900
H72         H  0.74869289  0.79401050  0.38569880     0.32580
H73         H  0.74053910  0.87961559  0.46192882     0.31550
H74         H  0.67833869  0.69175065  0.99782691     0.35550
H75         H  0.62835610  0.73004255  0.48262903     0.28280
H76         H  0.89546793  0.78513417  0.50393124     0.32510
H77         H  0.79703868  0.87833869  0.99421207     0.35360
H78         H  0.77495533  0.71943100  0.41037035     0.27980
H79         H  0.62944623  0.73047755  0.01534785     0.40850
H80         H  0.77131658  0.72651431  0.08931270     0.30900
H81         H  0.77156588  0.68683889  0.05344415     0.38520
H82         H  0.72933808  0.85483721  0.44246988     0.30370
H83         H  0.76929101  0.82319546  0.08396796     0.30430
H84         H  0.87224919  0.81136162  0.01207716     0.30700
C85         C  0.50196749  0.75877057  0.30759432     0.02800
C86         C  0.53469150  0.75707436  0.32271941    -0.13350
C87         C  0.53438164  0.75509887  0.35222310     0.00300
C88         C  0.50094941  0.75363052  0.36624813    -0.11870
C89         C  0.46805054  0.75685981  0.35178207     0.02790
C90         C  0.46880057  0.75908853  0.32229851    -0.11290
H91         H  0.56026965  0.75809269  0.31158130     0.08390
H92         H  0.50066657  0.75146587  0.38899292     0.05920
H93         H  0.44385480  0.76230840  0.31078162     0.05770
Zr94       Zr  0.32053979  0.77057335  0.49704537     2.17510
O95         O  0.37449440  0.74137192  0.49948269    -0.51660
O96         O  0.35124329  0.81535680  0.49716508    -0.74860
O97         O  0.35153584  0.76887681  0.45199866    -0.81650
O98         O  0.30813912  0.76982780  0.07710613    -0.83390
O99         O  0.31067568  0.76685068  0.41641910    -0.79020
O100        O  0.35043824  0.76738572  0.04226201    -0.90650
O101        O  0.31018550  0.85052119  0.49770004    -0.76610
O102        O  0.28636992  0.79925073  0.46592767    -0.86110
O103        O  0.28553920  0.80004327  0.02650716    -0.85790
O104        O  0.28620681  0.73856438  0.46902390    -0.72550
O105        O  0.28487770  0.73960687  0.02572067    -0.84690
Zr106      Zr  0.17923820  0.76687821  0.49617626     2.26420
Zr107      Zr  0.25065477  0.76772510  0.43848237     2.06270
Zr108      Zr  0.24885112  0.76959722  0.05460200     2.10050
Zr109      Zr  0.25096692  0.82843009  0.49554462     1.78760
O110        O  0.24984491  0.73264935  0.09007154    -0.93490
O111        O  0.25366632  0.85969970  0.45489777    -0.41300
O112        O  0.21342610  0.79877746  0.02423269    -0.77930
O113        O  0.21473520  0.79787462  0.46738542    -0.96620
O114        O  0.21399958  0.73731350  0.46669805    -0.89920
O115        O  0.21360493  0.73819631  0.02709788    -0.92760
C116        C  0.34277342  0.84135582  0.49764964     1.00990
C117        C  0.34098453  0.76814559  0.06827968     1.13920
C118        C  0.34334337  0.76768922  0.42578362     1.04700
O119        O  0.24967900  0.80431236  0.40262372    -0.94920
O120        O  0.19085291  0.76748372  0.41609984    -0.90660
O121        O  0.14884695  0.76779420  0.45122248    -0.83810
C122        C  0.15794429  0.76806393  0.42512962     1.11340
O123        O  0.30231960  0.67923281  0.49810720    -0.96890
Zr124      Zr  0.24869080  0.70888630  0.49764704     1.88940
O125        O  0.14768362  0.72262118  0.49557233    -0.73540
O126        O  0.25072860  0.72963874  0.40474622    -0.52800
O127        O  0.24735292  0.67902224  0.45632994    -0.97480
O128        O  0.24929347  0.67663765  0.03763004    -0.54700
O129        O  0.18879411  0.68751424  0.49846762    -0.74060
C130        C  0.15621759  0.69671107  0.49684321     0.98280
O131        O  0.12799129  0.79896430  0.49599077    -0.62880
O132        O  0.24594133  0.80740442  0.08858018    -0.57680
O133        O  0.14767406  0.76635963  0.04082221    -0.94370
O134        O  0.18880270  0.76971383  0.07619171    -0.92790
O135        O  0.24791420  0.85911035  0.03615887    -0.93150
O136        O  0.19858407  0.85914757  0.49276311    -0.91930
C137        C  0.15619282  0.76774237  0.06693434     1.17130
H138        H  0.30067498  0.81143004  0.03838871     0.33070
H139        H  0.19907235  0.80913954  0.45566393     0.43920
H140        H  0.19814831  0.72699706  0.03911769     0.37450
H141        H  0.30232510  0.72703485  0.45808203     0.33930
H142        H  0.25974075  0.87819378  0.46281528     0.25720
H143        H  0.25670866  0.73861233  0.38646235     0.31650
H144        H  0.23670869  0.66120069  0.46308479     0.37560
H145        H  0.25616521  0.87752093  0.02899444     0.32020
H146        H  0.25079083  0.79834700  0.10699997     0.30900
H147        H  0.24695077  0.74246349  0.10821940     0.32580
H148        H  0.23833607  0.65920771  0.03044588     0.31550
H149        H  0.17989519  0.84982374  0.50449556     0.35550
H150        H  0.12947421  0.80925431  0.01396219     0.28280
H151        H  0.39481073  0.75353321  0.49343177     0.32510
H152        H  0.29336990  0.65993525  0.49544764     0.35360
H153        H  0.26772988  0.81890698  0.08479496     0.27980
H154        H  0.13448194  0.81322128  0.48164397     0.40850
H155        H  0.27122516  0.81593369  0.40662876     0.30900
H156        H  0.27577131  0.85406863  0.44458423     0.38520
H157        H  0.23111004  0.68403854  0.05096147     0.30370
H158        H  0.27236512  0.71837924  0.40948254     0.30430
H159        H  0.37177716  0.72752379  0.48424208     0.30700
C160        C  0.99943075  0.77191164  0.30735603     0.02800
C161        C  0.96682891  0.77242228  0.32278111    -0.13350
C162        C  0.96692084  0.76859322  0.35208311     0.00300
C163        C  0.00006115  0.76453111  0.36581630    -0.11870
C164        C  0.03311884  0.76654862  0.35130585     0.02790
C165        C  0.03259628  0.76979861  0.32187827    -0.11290
H166        H  0.94153425  0.77642186  0.31199545     0.08390
H167        H  0.00019020  0.76098245  0.38839402     0.05920
H168        H  0.05782186  0.77122237  0.31031361     0.05770
C169        C  0.49898713  0.76770548  0.18577912     0.02800
C170        C  0.53142531  0.76909617  0.17018440    -0.13350
C171        C  0.53066813  0.77215163  0.14074821     0.00300
C172        C  0.49713953  0.77524157  0.12728781    -0.11870
C173        C  0.46453982  0.77259160  0.14222508     0.02790
C174        C  0.46561087  0.76902655  0.17155048    -0.11290
H175        H  0.55714406  0.76680494  0.18089007     0.08390
H176        H  0.49625249  0.77862182  0.10470288     0.05920
H177        H  0.44063574  0.76666242  0.18324327     0.05770
C178        C  0.99947953  0.77973486  0.18539855     0.02800
C179        C  0.96662554  0.78134372  0.17050117    -0.13350
C180        C  0.96638445  0.77996031  0.14105179     0.00300
C181        C  0.99920642  0.77802960  0.12644338    -0.11870
C182        C  0.03225503  0.77609603  0.14082772     0.02790
C183        C  0.03215733  0.77673287  0.17040294    -0.11290
H184        H  0.94119556  0.78267263  0.18183383     0.08390
H185        H  0.99882879  0.77739654  0.10362083     0.05920
H186        H  0.05725550  0.77379150  0.18179256     0.05770
Zr187      Zr  0.67922558  0.26691837  0.49804945     2.17510
O188        O  0.62520034  0.29576253  0.50201858    -0.51660
O189        O  0.64747171  0.22295958  0.49472149    -0.74860
O190        O  0.64917706  0.27070513  0.45297800    -0.81650
O191        O  0.68993162  0.26947420  0.07831356    -0.83390
O192        O  0.69091256  0.26865521  0.41780055    -0.79020
O193        O  0.64843339  0.26987820  0.04296123    -0.90650
O194        O  0.68838122  0.18769701  0.49346727    -0.76610
O195        O  0.71371229  0.23779159  0.46788518    -0.86110
O196        O  0.71299298  0.23719336  0.02842989    -0.85790
O197        O  0.71441406  0.29841350  0.46956420    -0.72550
O198        O  0.71442685  0.29774934  0.02647761    -0.84690
Zr199      Zr  0.82095882  0.26969570  0.49863022     2.26420
Zr200      Zr  0.75053827  0.26872277  0.44023917     2.06270
Zr201      Zr  0.74948820  0.26772358  0.05622849     2.10050
Zr202      Zr  0.74807522  0.20857271  0.49829380     1.78760
O203        O  0.75063239  0.30568030  0.09004661    -0.93490
O204        O  0.75374368  0.17731632  0.45829195    -0.41300
O205        O  0.78518401  0.23828591  0.02666952    -0.77930
O206        O  0.78567287  0.23868324  0.47014472    -0.96620
O207        O  0.78678650  0.29911530  0.46821262    -0.89920
O208        O  0.78597351  0.29871525  0.02856578    -0.92760
C209        C  0.65590014  0.19713178  0.49265440     1.00990
C210        C  0.65726651  0.27040810  0.06909329     1.13920
C211        C  0.65813593  0.27037714  0.42686584     1.04700
O212        O  0.75248083  0.23235345  0.40469640    -0.94920
O213        O  0.81066458  0.26841640  0.41837882    -0.90660
O214        O  0.85214256  0.26877379  0.45372256    -0.83810
C215        C  0.84345209  0.26808598  0.42757172     1.11340
O216        O  0.69776500  0.35749571  0.49954018    -0.96890
Zr217      Zr  0.75142040  0.32790173  0.49804738     1.88940
O218        O  0.85270059  0.31418146  0.49878936    -0.73540
O219        O  0.75102877  0.30692897  0.40609065    -0.52800
O220        O  0.75062153  0.35761225  0.45616730    -0.97480
O221        O  0.75303196  0.36070905  0.03709217    -0.54700
O222        O  0.81097960  0.34902928  0.49604974    -0.74060
C223        C  0.84360102  0.34000737  0.49700409     0.98280
O224        O  0.87188221  0.23725587  0.49874793    -0.62880
O225        O  0.74911747  0.23088086  0.09188486    -0.57680
O226        O  0.85122165  0.26642592  0.04378365    -0.94370
O227        O  0.80873246  0.26478436  0.07853311    -0.92790
O228        O  0.74224038  0.17805451  0.03930911    -0.93150
O229        O  0.79893494  0.17654061  0.00259082    -0.91930
C230        C  0.84165386  0.26456589  0.06973717     1.17130
H231        H  0.69722317  0.22591964  0.04014090     0.33070
H232        H  0.80147128  0.22725320  0.45882057     0.43920
H233        H  0.80138708  0.30974217  0.04057644     0.37450
H234        H  0.69875992  0.31003040  0.45819544     0.33930
H235        H  0.74507821  0.15899899  0.46541010     0.25720
H236        H  0.74640574  0.29787976  0.38775657     0.31650
H237        H  0.76183846  0.37539361  0.46215158     0.37560
H238        H  0.73306478  0.16017899  0.03175264     0.32020
H239        H  0.74286598  0.24045583  0.10965394     0.30900
H240        H  0.75192391  0.29628012  0.10865982     0.32580
H241        H  0.76274562  0.37823726  0.02884286     0.31550
H242        H  0.82051252  0.18809679  0.49831372     0.35550
H243        H  0.86881173  0.22547429  0.01580483     0.28280
H244        H  0.60524186  0.28439986  0.49419443     0.32510
H245        H  0.70649910  0.37678661  0.49615034     0.35360
H246        H  0.72757495  0.21937102  0.08756818     0.27980
H247        H  0.86651596  0.22421743  0.48322721     0.40850
H248        H  0.73001634  0.22141601  0.40768285     0.30900
H249        H  0.73469153  0.18350328  0.44501869     0.38520
H250        H  0.77251795  0.35392040  0.04966097     0.30370
H251        H  0.72874151  0.31769728  0.40999930     0.30430
H252        H  0.62882680  0.31125514  0.48838517     0.30700
C253        C  0.50140572  0.27650486  0.30798716     0.02800
C254        C  0.53427650  0.27427124  0.32282091    -0.13350
C255        C  0.53420067  0.27053460  0.35218722     0.00300
C256        C  0.50088169  0.26809092  0.36627728    -0.11870
C257        C  0.46791836  0.27178843  0.35213366     0.02790
C258        C  0.46843547  0.27601156  0.32290616    -0.11290
H259        H  0.55971753  0.27565168  0.31155705     0.08390
H260        H  0.50065264  0.26421327  0.38880089     0.05920
H261        H  0.44329053  0.27938169  0.31169459     0.05770
Zr262      Zr  0.32070627  0.26673387  0.49669874     2.17510
O263        O  0.37551477  0.29491147  0.49323628    -0.51660
O264        O  0.35156455  0.22228956  0.50034920    -0.74860
O265        O  0.35093058  0.27145805  0.04163321    -0.81650
O266        O  0.30998285  0.27069617  0.41644944    -0.83390
O267        O  0.30914561  0.26929407  0.07677925    -0.79020
O268        O  0.35144161  0.27008227  0.45181411    -0.90650
O269        O  0.30993574  0.18733467  0.50009472    -0.76610
O270        O  0.28597275  0.23754735  0.02708723    -0.86110
O271        O  0.28624024  0.23747377  0.46660913    -0.85790
O272        O  0.28582511  0.29852299  0.02447047    -0.72550
O273        O  0.28582269  0.29787625  0.46784593    -0.84690
Zr274      Zr  0.17893701  0.27060959  0.49655940     2.26420
Zr275      Zr  0.24985502  0.26877304  0.05428985     2.06270
Zr276      Zr  0.25011630  0.26826854  0.43844742     2.10050
Zr277      Zr  0.25063208  0.20893971  0.49699981     1.78760
O278        O  0.24956992  0.30549727  0.40326714    -0.93490
O279        O  0.24621977  0.17742260  0.03736060    -0.41300
O280        O  0.21391119  0.23909449  0.46851276    -0.77930
O281        O  0.21371659  0.23910724  0.02515850    -0.96620
O282        O  0.21405435  0.29965184  0.02618763    -0.89920
O283        O  0.21401276  0.29933006  0.46583477    -0.92760
C284        C  0.34257081  0.19642646  0.50130920     1.00990
C285        C  0.34270235  0.27143204  0.42569723     1.13920
C286        C  0.34183830  0.27135870  0.06770870     1.04700
O287        O  0.24773118  0.23142302  0.08933347    -0.94920
O288        O  0.19043911  0.26950203  0.07657318    -0.90660
O289        O  0.14843442  0.27315042  0.04174709    -0.83810
C290        C  0.15767947  0.27174261  0.06777710     1.11340
O291        O  0.30302837  0.35786309  0.49569723    -0.96890
Zr292      Zr  0.24912352  0.32836945  0.49561921     1.88940
O293        O  0.14793104  0.31512500  0.49600538    -0.73540
O294        O  0.24974926  0.30607246  0.08891177    -0.52800
O295        O  0.24748906  0.35831202  0.03687722    -0.97480
O296        O  0.25045663  0.36031737  0.45539773    -0.54700
O297        O  0.18965860  0.35003554  0.49497203    -0.74060
C298        C  0.15694466  0.34102059  0.49556124     0.98280
O299        O  0.12696823  0.23912801  0.49852048    -0.62880
O300        O  0.25013026  0.23069677  0.40412398    -0.57680
O301        O  0.14826623  0.26739482  0.45162243    -0.94370
O302        O  0.19033377  0.26689885  0.41648707    -0.92790
O303        O  0.25428950  0.17858028  0.45616422    -0.93150
O304        O  0.19875260  0.17766954  0.49381217    -0.91930
C305        C  0.15746797  0.26634473  0.42554142     1.17130
H306        H  0.30179499  0.22615563  0.45497080     0.33070
H307        H  0.19776663  0.22788119  0.03676846     0.43920
H308        H  0.19869691  0.31044170  0.45369970     0.37450
H309        H  0.30155925  0.31011277  0.03566715     0.33930
H310        H  0.25371203  0.15900354  0.03003165     0.25720
H311        H  0.25600120  0.29676988  0.10694749     0.31650
H312        H  0.23735109  0.37622942  0.03000369     0.37560
H313        H  0.26291848  0.16045915  0.46373066     0.32020
H314        H  0.25372410  0.24019637  0.38573544     0.30900
H315        H  0.24706366  0.29576157  0.38504605     0.32580
H316        H  0.24198771  0.37839777  0.46292419     0.31550
H317        H  0.17901270  0.18746601  0.00380844     0.35550
H318        H  0.13289013  0.22426858  0.48489358     0.28280
H319        H  0.39497770  0.28378480  0.50219250     0.32510
H320        H  0.29421374  0.37721004  0.99813075     0.35360
H321        H  0.27302965  0.22048052  0.40742638     0.27980
H322        H  0.12849151  0.22952534  0.01701541     0.40850
H323        H  0.27087263  0.22128451  0.08701538     0.30900
H324        H  0.26630191  0.18307264  0.04987515     0.38520
H325        H  0.23059469  0.35406748  0.44296769     0.30370
H326        H  0.27117212  0.31767818  0.08424857     0.30430
H327        H  0.37148901  0.31098129  0.00584961     0.30700
C328        C  0.99991726  0.26666807  0.30725687     0.02800
C329        C  0.96699301  0.26686679  0.32221423    -0.13350
C330        C  0.96690295  0.26907919  0.35171104     0.00300
C331        C  0.00021630  0.27126369  0.36577792    -0.11870
C332        C  0.03328538  0.26885692  0.35143316     0.02790
C333        C  0.03292726  0.26668901  0.32198905    -0.11290
H334        H  0.94174058  0.26497033  0.31083960     0.08390
H335        H  0.00045706  0.27395215  0.38842602     0.05920
H336        H  0.05810016  0.26462913  0.31045267     0.05770
C337        C  0.49885029  0.27786820  0.18602054     0.02800
C338        C  0.53157999  0.27671192  0.17083008    -0.13350
C339        C  0.53124789  0.27444868  0.14135594     0.00300
C340        C  0.49791613  0.27176736  0.12753447    -0.11870
C341        C  0.46509258  0.27450863  0.14209964     0.02790
C342        C  0.46581673  0.27821275  0.17132496    -0.11290
H343        H  0.55716257  0.27761963  0.18191009     0.08390
H344        H  0.49744805  0.26828243  0.10500666     0.05920
H345        H  0.44087113  0.28170219  0.18272401     0.05770
C346        C  0.00070224  0.26216371  0.18549277     0.02800
C347        C  0.96789488  0.25955681  0.17074321    -0.13350
C348        C  0.96750009  0.26018926  0.14118133     0.00300
C349        C  0.00014550  0.26414227  0.12652865    -0.11870
C350        C  0.03290052  0.26795119  0.14090704     0.02790
C351        C  0.03305578  0.26656270  0.17043674    -0.11290
H352        H  0.94275497  0.25698733  0.18229019     0.08390
H353        H  0.99998433  0.26495395  0.10372130     0.05920
H354        H  0.05827846  0.26919071  0.18174738     0.05770
C355        C  0.50028065  0.95856549  0.49491107     0.02800
C356        C  0.53387258  0.94473067  0.49475663    -0.13350
C357        C  0.53539370  0.91566888  0.49702304     0.00300
C358        C  0.50340199  0.90033202  0.49995833    -0.11870
C359        C  0.46944866  0.91334812  0.49805524     0.02790
C360        C  0.46812909  0.94267809  0.49632935    -0.11290
H361        H  0.55881439  0.95651032  0.49259042     0.08390
H362        H  0.50521076  0.87794175  0.50299507     0.05920
H363        H  0.44216710  0.95310742  0.49604222     0.05770
C364        C  0.49936820  0.07956835  0.49423456     0.02800
C365        C  0.53175219  0.09454506  0.49023868    -0.13350
C366        C  0.53196778  0.12380331  0.49116920     0.00300
C367        C  0.49913436  0.13798238  0.49491518    -0.11870
C368        C  0.46637644  0.12344706  0.49818081     0.02790
C369        C  0.46676142  0.09413462  0.49816764    -0.11290
H370        H  0.55672108  0.08338511  0.48630247     0.08390
H371        H  0.49907884  0.16060251  0.49533666     0.05920
H372        H  0.44186573  0.08262277  0.50167205     0.05770
C373        C  0.52287220  0.00438516  0.51201407    -0.26640
C374        C  0.49930645  0.98959812  0.49431792    -0.14720
C375        C  0.47574695  0.00467675  0.47644290     0.35910
C376        C  0.47584534  0.03398944  0.47691261    -0.26090
C377        C  0.49961247  0.04864044  0.49450581    -0.15330
C378        C  0.52328600  0.03361825  0.51219822     0.37000
N379        N  0.54720058  0.04797856  0.53090981    -0.89580
H380        H  0.54084907  0.99317715  0.52611189     0.18110
H381        H  0.45777837  0.04537533  0.46302502     0.18100
N382        N  0.45253107  0.99041718  0.45714838    -0.88610
H383        H  0.57372115  0.04198168  0.02617508     0.35480
H384        H  0.54140646  0.04143632  0.05148753     0.40580
H385        H  0.45887813  0.99723721  0.43675779     0.40200
H386        H  0.42583262  0.99625500  0.46146481     0.35090
C387        C  0.01549794  0.28557383  0.23031943    -0.26640
C388        C  0.00100701  0.26216635  0.21673108    -0.14720
C389        C  0.98622281  0.24009359  0.23320925     0.35910
C390        C  0.98550407  0.24248567  0.26262139    -0.26090
C391        C  0.99996139  0.26594766  0.27611630    -0.15330
C392        C  0.01510355  0.28784387  0.25967856     0.37000
N393        N  0.02897776  0.31314004  0.27177272    -0.89580
H394        H  0.02647495  0.30269655  0.21789964     0.18110
H395        H  0.97443030  0.22547478  0.27514295     0.18100
N396        N  0.97331299  0.21449658  0.22115390    -0.88610
H397        H  0.05699000  0.31341645  0.26857138     0.35480
H398        H  0.02443966  0.31415512  0.29342179     0.40580
H399        H  0.97891667  0.21325398  0.19966674     0.40200
H400        H  0.94519788  0.21392363  0.22368181     0.35090
C401        C  0.43183579  0.16234552  0.01994185    -0.26640
C402        C  0.43221116  0.13949284  0.50152797    -0.14720
C403        C  0.40126350  0.13393839  0.48498118     0.35910
C404        C  0.37127163  0.15193972  0.48653491    -0.26090
C405        C  0.37212496  0.17581185  0.50347929    -0.15330
C406        C  0.40228358  0.18066439  0.02095454     0.37000
N407        N  0.40292165  0.20434839  0.03942115    -0.89580
H408        H  0.45516841  0.16630687  0.03313481     0.18110
H409        H  0.34797236  0.14823713  0.47322496     0.18100
N410        N  0.40098895  0.11092283  0.46570526    -0.88610
H411        H  0.42720617  0.20505984  0.05067940     0.35480
H412        H  0.38223244  0.20162333  0.05425826     0.40580
H413        H  0.42063851  0.11490564  0.45030449     0.40200
H414        H  0.37616044  0.10973156  0.45523670     0.35090
C415        C  0.37146329  0.25731846  0.11286021    -0.26640
C416        C  0.37138902  0.27402723  0.08844352    -0.14720
C417        C  0.40057495  0.29234444  0.08334884     0.35910
C418        C  0.42965594  0.29307230  0.10206619    -0.26090
C419        C  0.43084049  0.27545426  0.12578060    -0.15330
C420        C  0.40107713  0.25764459  0.13156731     0.37000
N421        N  0.40186990  0.23876934  0.15522786    -0.89580
H422        H  0.34901254  0.24321248  0.11676896     0.18110
H423        H  0.45205181  0.30709531  0.09759945     0.18100
N424        N  0.40082753  0.31035933  0.05913851    -0.88610
H425        H  0.38031935  0.22463818  0.15414942     0.35480
H426        H  0.39718723  0.25050143  0.17331180     0.40580
H427        H  0.42404732  0.30596493  0.04734358     0.40200
H428        H  0.40273106  0.33097707  0.06607075     0.35090
C429        C  0.12899875  0.28065748  0.37987453    -0.26640
C430        C  0.12769773  0.26456849  0.40473727    -0.14720
C431        C  0.09676269  0.24814525  0.41044703     0.35910
C432        C  0.06720225  0.24923981  0.39205980    -0.26090
C433        C  0.06734106  0.26663516  0.36810897    -0.15330
C434        C  0.09892550  0.28215338  0.36161958     0.37000
N435        N  0.09994677  0.30010198  0.33723754    -0.89580
H436        H  0.15283373  0.29316201  0.37542353     0.18110
H437        H  0.04353942  0.23659048  0.39667719     0.18100
N438        N  0.09543008  0.23038652  0.43497501    -0.88610
H439        H  0.12511945  0.30999018  0.33551312     0.35480
H440        H  0.08074774  0.31583616  0.34018223     0.40580
H441        H  0.11520692  0.21499655  0.43251185     0.40200
H442        H  0.07054982  0.22001577  0.43636032     0.35090
C443        C  0.09907580  0.29099429  0.08394172    -0.26640
C444        C  0.12809464  0.27276322  0.08878934    -0.14720
C445        C  0.12750186  0.25518251  0.11277584     0.35910
C446        C  0.09679404  0.25505681  0.13038723    -0.26090
C447        C  0.06693942  0.27237601  0.12470269    -0.15330
C448        C  0.06908041  0.29162900  0.10190852     0.37000
N449        N  0.04209153  0.31266320  0.09678494    -0.89580
H450        H  0.09991342  0.30520548  0.06612706     0.18110
H451        H  0.09546102  0.24042278  0.14787227     0.18100
N452        N  0.15728259  0.23671547  0.11851331    -0.88610
H453        H  0.02795446  0.30724223  0.07856170     0.35480
H454        H  0.02362573  0.31415164  0.11335888     0.40580
H455        H  0.15847072  0.22218099  0.10221147     0.40200
H456        H  0.15267718  0.22537005  0.13707910     0.35090
C457        C  0.52172312  0.29670222  0.23173061    -0.26640
C458        C  0.49899581  0.27814890  0.21726374    -0.14720
C459        C  0.47709447  0.25942906  0.23281778     0.35910
C460        C  0.47813857  0.25960104  0.26225418    -0.26090
C461        C  0.50091622  0.27798223  0.27677805    -0.15330
C462        C  0.52273769  0.29685017  0.26132139     0.37000
N463        N  0.54526819  0.31659093  0.27553656    -0.89580
H464        H  0.53846044  0.31134962  0.22003386     0.18110
H465        H  0.46155039  0.24476009  0.27384899     0.18100
N466        N  0.45458798  0.23951262  0.21879898    -0.88610
H467        H  0.57198625  0.31341259  0.26899715     0.35480
H468        H  0.53754081  0.33664300  0.26913464     0.40580
H469        H  0.46239159  0.21951503  0.22531428     0.40200
H470        H  0.42786255  0.24269425  0.22532304     0.35090
C471        C  0.37136067  0.25977296  0.37934424    -0.26640
C472        C  0.37290769  0.27384616  0.40519546    -0.14720
C473        C  0.40446747  0.28893899  0.41201112     0.35910
C474        C  0.43416422  0.28870943  0.39380178    -0.26090
C475        C  0.43376726  0.27325125  0.36881808    -0.15330
C476        C  0.40166731  0.25901214  0.36117689     0.37000
N477        N  0.40027541  0.24310413  0.33565006    -0.89580
H478        H  0.34710105  0.24826012  0.37394416     0.18110
H479        H  0.45805666  0.30053383  0.39953830     0.18100
N480        N  0.40654158  0.30477078  0.43743257    -0.88610
H481        H  0.37473658  0.23401536  0.33315157     0.35480
H482        H  0.41877360  0.22670910  0.33761222     0.40580
H483        H  0.41175953  0.32559494  0.43203567     0.40200
H484        H  0.42849979  0.29734500  0.44916083     0.35090
C485        C  0.62652173  0.15204054  0.00525607    -0.26640
C486        C  0.62588764  0.17697859  0.48957094    -0.14720
C487        C  0.59595520  0.18276142  0.47196015     0.35910
C488        C  0.56669542  0.16405382  0.47148713    -0.26090
C489        C  0.56611167  0.14012010  0.48875637    -0.15330
C490        C  0.59674405  0.13380121  0.00532752     0.37000
N491        N  0.59703737  0.10971791  0.02338598    -0.89580
H492        H  0.64947920  0.14737050  0.01866882     0.18110
H493        H  0.54359177  0.16866689  0.45821948     0.18100
N494        N  0.59547408  0.20733446  0.45433242    -0.88610
H495        H  0.60083376  0.11640227  0.04408713     0.35480
H496        H  0.61920554  0.09737008  0.01780360     0.40580
H497        H  0.59092830  0.22452174  0.46729324     0.40200
H498        H  0.57350118  0.20674580  0.44049159     0.35090
C499        C  0.59793759  0.28997376  0.08242142    -0.26640
C500        C  0.62719020  0.27273628  0.08954044    -0.14720
C501        C  0.62627954  0.25752567  0.11515191     0.35910
C502        C  0.59517821  0.25892200  0.13238674    -0.26090
C503        C  0.56524004  0.27530333  0.12450177    -0.15330
C504        C  0.56745003  0.29174931  0.09976089     0.37000
N505        N  0.53890695  0.31063231  0.09229243    -0.89580
H506        H  0.59875316  0.30231290  0.06319173     0.18110
H507        H  0.59378652  0.24641847  0.15146453     0.18100
N508        N  0.65625436  0.24007829  0.12309512    -0.88610
H509        H  0.52937999  0.30520549  0.07233477     0.35480
H510        H  0.54979729  0.33075990  0.09094315     0.40580
H511        H  0.65811660  0.22404926  0.10833116     0.40200
H512        H  0.65136543  0.23051285  0.14260397     0.35090
C513        C  0.90419072  0.27625629  0.13212238    -0.26640
C514        C  0.93302232  0.25841448  0.12524886    -0.14720
C515        C  0.92974284  0.24078139  0.10175688     0.35910
C516        C  0.89918103  0.24267992  0.08448214    -0.26090
C517        C  0.87110536  0.26140525  0.09052956    -0.15330
C518        C  0.87303852  0.27778965  0.11509283     0.37000
N519        N  0.84452383  0.29705483  0.12174323    -0.89580
H520        H  0.90661046  0.28983470  0.15017754     0.18110
H521        H  0.89754886  0.22957112  0.06601054     0.18100
N522        N  0.95747101  0.22091024  0.09535029    -0.88610
H523        H  0.85124291  0.30871102  0.13952654     0.35480
H524        H  0.82169976  0.28530788  0.12729715     0.40580
H525        H  0.94574891  0.20102544  0.09537577     0.40200
H526        H  0.96699951  0.22511197  0.07499949     0.35090
C527        C  0.87155613  0.28131211  0.38118162    -0.26640
C528        C  0.87364483  0.26659596  0.40687826    -0.14720
C529        C  0.90515729  0.25090747  0.41281877     0.35910
C530        C  0.93382664  0.25083325  0.39351831    -0.26090
C531        C  0.93301698  0.26711124  0.36882624    -0.15330
C532        C  0.90113369  0.28206698  0.36235271     0.37000
N533        N  0.89910675  0.29893927  0.33739780    -0.89580
H534        H  0.84749900  0.29329955  0.37624893     0.18110
H535        H  0.95765465  0.23853038  0.39833623     0.18100
N536        N  0.90827688  0.23512847  0.43853306    -0.88610
H537        H  0.89390860  0.31950825  0.34339836     0.35480
H538        H  0.87712631  0.29197307  0.32549649     0.40580
H539        H  0.91585206  0.24919239  0.45420103     0.40200
H540        H  0.92949406  0.22076640  0.43716593     0.35090
C541        C  0.62962022  0.25724906  0.38084853    -0.26640
C542        C  0.62816458  0.27224264  0.40618925    -0.14720
C543        C  0.59692894  0.28801791  0.41227252     0.35910
C544        C  0.56764702  0.28782674  0.39375120    -0.26090
C545        C  0.56802081  0.27168166  0.36920823    -0.15330
C546        C  0.59968232  0.25661236  0.36245940     0.37000
N547        N  0.60110469  0.23978600  0.33768743    -0.89580
H548        H  0.65343820  0.24504830  0.37585773     0.18110
H549        H  0.54408351  0.30027208  0.39889733     0.18100
N550        N  0.59476253  0.30454206  0.43723838    -0.88610
H551        H  0.60630013  0.21918619  0.34387065     0.35480
H552        H  0.62289195  0.24669466  0.32537367     0.40580
H553        H  0.57226509  0.29780933  0.44886439     0.40200
H554        H  0.59038560  0.32530733  0.43123844     0.35090
C555        C  0.02233073  0.79299249  0.26237015    -0.26640
C556        C  0.99882443  0.77420594  0.27610317    -0.14720
C557        C  0.97528358  0.75752426  0.25985838     0.35910
C558        C  0.97558757  0.76016854  0.23040407    -0.26090
C559        C  0.99925699  0.77875771  0.21666852    -0.15330
C560        C  0.02274514  0.79550387  0.23283575     0.37000
N561        N  0.04659494  0.81518618  0.21924302    -0.89580
H562        H  0.04011987  0.80603030  0.27476924     0.18110
H563        H  0.95792020  0.74702724  0.21800266     0.18100
N564        N  0.95178012  0.73745066  0.27325553    -0.88610
H565        H  0.06219214  0.82576734  0.23411711     0.35480
H566        H  0.03052886  0.83018195  0.20919315     0.40580
H567        H  0.96810426  0.72238579  0.28293797     0.40200
H568        H  0.93608675  0.72701702  0.25833591     0.35090
C569        C  0.40433759  0.85401791  0.48239330    -0.26640
C570        C  0.37323346  0.86160475  0.49723172    -0.14720
C571        C  0.37275195  0.88746445  0.51143061     0.35910
C572        C  0.40437992  0.90413146  0.51164525    -0.26090
C573        C  0.43583938  0.89600591  0.49700102    -0.15330
C574        C  0.43488611  0.87106351  0.48134166     0.37000
N575        N  0.46448022  0.86313610  0.46359050    -0.89580
H576        H  0.40477323  0.83467666  0.47105327     0.18110
H577        H  0.40455378  0.92330865  0.02358303     0.18100
N578        N  0.34092727  0.89626244  0.02637066    -0.88610
H579        H  0.45492694  0.86152721  0.44295037     0.35480
H580        H  0.47345688  0.84339908  0.47003365     0.40580
H581        H  0.32111863  0.90092572  0.01136840     0.40200
H582        H  0.34592584  0.91488890  0.03704527     0.35090
C583        C  0.42929134  0.75052390  0.10422853    -0.26640
C584        C  0.43030014  0.77009639  0.12608629    -0.14720
C585        C  0.40024194  0.78785639  0.13028917     0.35910
C586        C  0.37035684  0.78604615  0.11191200    -0.26090
C587        C  0.37040413  0.76730092  0.08928543    -0.15330
C588        C  0.39997242  0.74917083  0.08575308     0.37000
N589        N  0.40038377  0.72933423  0.06330802    -0.89580
H590        H  0.45199747  0.73657559  0.10100232     0.18110
H591        H  0.34766800  0.80012549  0.11448970     0.18100
N592        N  0.40103337  0.80877942  0.15183037    -0.88610
H593        H  0.40304307  0.70938134  0.07213349     0.35480
H594        H  0.42324443  0.73325945  0.05085675     0.40580
H595        H  0.39830038  0.79862144  0.17124439     0.40200
H596        H  0.37852678  0.82189044  0.15007805     0.35090
C597        C  0.12747252  0.78514772  0.11094525    -0.26640
C598        C  0.12604376  0.76743519  0.08751885    -0.14720
C599        C  0.09506237  0.75054589  0.08343502     0.35910
C600        C  0.06581348  0.75267863  0.10216746    -0.26090
C601        C  0.06613274  0.77185679  0.12441510    -0.15330
C602        C  0.09766654  0.78776668  0.12917421     0.37000
N603        N  0.09897497  0.80755081  0.15162104    -0.89580
H604        H  0.15116401  0.79806087  0.11435596     0.18110
H605        H  0.04206836  0.73979753  0.09887206     0.18100
N606        N  0.09343458  0.73102769  0.06055857    -0.88610
H607        H  0.10400298  0.82728888  0.14290185     0.35480
H608        H  0.12078794  0.80234790  0.16463572     0.40580
H609        H  0.08885497  0.74243350  0.04206182     0.40200
H610        H  0.07102107  0.71782895  0.06282421     0.35090
C611        C  0.12924906  0.75433963  0.37926254    -0.26640
C612        C  0.12786664  0.76950740  0.40449913    -0.14720
C613        C  0.09648603  0.78507415  0.41066551     0.35910
C614        C  0.06702325  0.78454289  0.39234743    -0.26090
C615        C  0.06724354  0.76813632  0.36797560    -0.15330
C616        C  0.09904965  0.75327565  0.36111338     0.37000
N617        N  0.10037411  0.73622843  0.33649570    -0.89580
H618        H  0.15318873  0.74230651  0.37421413     0.18110
H619        H  0.04341416  0.79690679  0.39756403     0.18100
N620        N  0.09433413  0.80169226  0.43556970    -0.88610
H621        H  0.10594325  0.71573265  0.34283190     0.35480
H622        H  0.12189721  0.74320213  0.32393946     0.40580
H623        H  0.07221106  0.79471779  0.44748708     0.40200
H624        H  0.08944178  0.82237731  0.42952757     0.35090
C625        C  0.48045939  0.74269950  0.26077334    -0.26640
C626        C  0.50211886  0.76101358  0.27640516    -0.14720
C627        C  0.52305472  0.78128669  0.26208635     0.35910
C628        C  0.52200225  0.78286651  0.23257073    -0.26090
C629        C  0.50012859  0.76467770  0.21692852    -0.15330
C630        C  0.47947851  0.74421787  0.23126664     0.37000
N631        N  0.45819037  0.72447262  0.21594578    -0.89580
H632        H  0.46452172  0.72685813  0.27153520     0.18110
H633        H  0.53779024  0.79882042  0.22184995     0.18100
N634        N  0.54450625  0.80089277  0.27745014    -0.88610
H635        H  0.43130798  0.72627715  0.22262959     0.35480
H636        H  0.46718871  0.70442068  0.22121126     0.40580
H637        H  0.53572451  0.82100376  0.27218964     0.40200
H638        H  0.57138122  0.79892445  0.27080125     0.35090
C639        C  0.43602639  0.77837607  0.39207099    -0.26640
C640        C  0.43414784  0.76114456  0.36838705    -0.14720
C641        C  0.40094674  0.74791934  0.36217933     0.35910
C642        C  0.37105742  0.75121759  0.38043166    -0.26090
C643        C  0.37400244  0.76686735  0.40531879    -0.15330
C644        C  0.40700038  0.78082042  0.41085729     0.37000
N645        N  0.41127177  0.79754141  0.43556401    -0.89580
H646        H  0.46092875  0.78949050  0.39651360     0.18110
H647        H  0.34597765  0.74045502  0.37574652     0.18100
N648        N  0.39778038  0.73028695  0.33809508    -0.88610
H649        H  0.43496022  0.80946623  0.43419981     0.35480
H650        H  0.41527886  0.78390336  0.45254715     0.40580
H651        H  0.37692198  0.73808848  0.32544407     0.40200
H652        H  0.39025456  0.71034979  0.34506872     0.35090
C653        C  0.60834672  0.86688496  0.47158007    -0.26640
C654        C  0.63043523  0.86497750  0.49537290    -0.14720
C655        C  0.62402204  0.88252788  0.01855658     0.35910
C656        C  0.59363956  0.90024456  0.01822941    -0.26090
C657        C  0.57007632  0.90059960  0.49509374    -0.15330
C658        C  0.57821878  0.88458852  0.47109478     0.37000
N659        N  0.55612925  0.88659891  0.44625306    -0.89580
H660        H  0.61459714  0.85441569  0.45338528     0.18110
H661        H  0.58748459  0.91293229  0.03642279     0.18100
N662        N  0.64776267  0.88172610  0.04250109    -0.88610
H663        H  0.56695645  0.87447105  0.43006929     0.35480
H664        H  0.53092499  0.87791309  0.45099162     0.40580
H665        H  0.64555101  0.86191388  0.05174486     0.40200
H666        H  0.63935553  0.89606199  0.05766848     0.35090
C667        C  0.59655566  0.75539099  0.08174430    -0.26640
C668        C  0.62686476  0.77151962  0.08886321    -0.14720
C669        C  0.62669135  0.78643697  0.11446967     0.35910
C670        C  0.59522446  0.78617790  0.13140464    -0.26090
C671        C  0.56442187  0.77078817  0.12358957    -0.15330
C672        C  0.56586126  0.75446432  0.09897464     0.37000
N673        N  0.53639293  0.73646079  0.09156672    -0.89580
H674        H  0.59670702  0.74316726  0.06261872     0.18110
H675        H  0.59446145  0.79849854  0.15044165     0.18100
N676        N  0.65763200  0.80270717  0.12260681    -0.88610
H677        H  0.52727944  0.74226770  0.07152441     0.35480
H678        H  0.54621470  0.71603725  0.09044131     0.40580
H679        H  0.67841673  0.78877146  0.12767077     0.40200
H680        H  0.65213587  0.81374903  0.14104182     0.35090
C681        C  0.87456091  0.79595380  0.10847713    -0.26640
C682        C  0.87068320  0.77302225  0.09047056    -0.14720
C683        C  0.89679055  0.75162190  0.09071459     0.35910
C684        C  0.92718398  0.75411650  0.10810089    -0.26090
C685        C  0.93209269  0.77759722  0.12518202    -0.15330
C686        C  0.90539310  0.79862742  0.12569219     0.37000
N687        N  0.91034473  0.82296307  0.14280733    -0.89580
H688        H  0.85443420  0.81239350  0.10805082     0.18110
H689        H  0.94754552  0.73783914  0.10804630     0.18100
N690        N  0.89243805  0.72759553  0.07301769    -0.88610
H691        H  0.88829737  0.83647681  0.14066371     0.35480
H692        H  0.93298871  0.83371607  0.13509730     0.40580
H693        H  0.86927204  0.71690764  0.07981562     0.40200
H694        H  0.91416951  0.71383994  0.07553339     0.35090
C695        C  0.87115390  0.75815346  0.38112791    -0.26640
C696        C  0.87339044  0.77306582  0.40646772    -0.14720
C697        C  0.90520097  0.78829889  0.41244413     0.35910
C698        C  0.93454866  0.78714100  0.39378489    -0.26090
C699        C  0.93329453  0.77093486  0.36927173    -0.15330
C700        C  0.90093927  0.75666360  0.36256744     0.37000
N701        N  0.89879367  0.73998169  0.33757918    -0.89580
H702        H  0.84669918  0.74657383  0.37643239     0.18110
H703        H  0.95887368  0.79885178  0.39857505     0.18100
N704        N  0.90766330  0.80493174  0.43747235    -0.88610
H705        H  0.87313136  0.73093764  0.33574333     0.35480
H706        H  0.91721335  0.72355993  0.33977120     0.40580
H707        H  0.88865203  0.82099653  0.43569658     0.40200
H708        H  0.93306172  0.81448154  0.43893182     0.35090
C709        C  0.56734861  0.77741548  0.39148815    -0.26640
C710        C  0.56803527  0.75830411  0.36923350    -0.14720
C711        C  0.60003052  0.74289446  0.36426836     0.35910
C712        C  0.63009338  0.74637845  0.38232772    -0.26090
C713        C  0.62844849  0.76456586  0.40543225    -0.15330
C714        C  0.59691605  0.78068241  0.40952918     0.37000
N715        N  0.59531276  0.80081852  0.43176889    -0.89580
H716        H  0.54341188  0.79004096  0.39482833     0.18110
H717        H  0.65431756  0.73409483  0.37901518     0.18100
N718        N  0.60157649  0.72328201  0.34154275    -0.88610
H719        H  0.57033214  0.81106751  0.43195135     0.35480
H720        H  0.61489732  0.81590642  0.42709997     0.40580
H721        H  0.58269919  0.70752039  0.34582701     0.40200
H722        H  0.62697162  0.71369761  0.34078011     0.35090
C723        C  0.90746063  0.39861778  0.47509273    -0.26640
C724        C  0.93150041  0.39851608  0.49790521    -0.14720
C725        C  0.92502173  0.38033711  0.02104894     0.35910
C726        C  0.89610179  0.36155293  0.01994552    -0.26090
C727        C  0.87286415  0.36085077  0.49670519    -0.15330
C728        C  0.87815411  0.37998659  0.47412865     0.37000
N729        N  0.85600200  0.38006197  0.44924251    -0.89580
H730        H  0.91257609  0.41229730  0.45722643     0.18110
H731        H  0.89159953  0.34740508  0.03755272     0.18100
N732        N  0.94687668  0.38053167  0.04609256    -0.88610
H733        H  0.84194304  0.39898535  0.44865525     0.35480
H734        H  0.83674931  0.36412067  0.44953533     0.40580
H735        H  0.96580284  0.39672762  0.04588056     0.40200
H736        H  0.96112785  0.36170453  0.04694932     0.35090
C737        C  0.09817826  0.35592898  0.01489667    -0.26640
C738        C  0.12712902  0.36151873  0.49662136    -0.14720
C739        C  0.12614207  0.38564780  0.47932626     0.35910
C740        C  0.09501196  0.40265615  0.47953078    -0.26090
C741        C  0.06546563  0.39636740  0.49719141    -0.15330
C742        C  0.06789861  0.37331729  0.01579405     0.37000
N743        N  0.03983925  0.36762186  0.03593618    -0.89580
H744        H  0.09910571  0.33788903  0.02873495     0.18110
H745        H  0.09342936  0.42044228  0.46536172     0.18100
N746        N  0.15579995  0.39207623  0.46072910    -0.88610
H747        H  0.03008362  0.34744099  0.03239890     0.35480
H748        H  0.05126960  0.36797985  0.05606032     0.40580
H749        H  0.17773840  0.39797246  0.47322969     0.40200
H750        H  0.14967771  0.40946414  0.44818499     0.35090
C751        C  0.02092949  0.53251669  0.01692577    -0.26640
C752        C  0.99941237  0.54790871  0.49806803    -0.14720
C753        C  0.97852980  0.53353839  0.47797463     0.35910
C754        C  0.97910692  0.50422355  0.47737213    -0.26090
C755        C  0.00047745  0.48883293  0.49636292    -0.15330
C756        C  0.02148067  0.50324363  0.01636093     0.37000
N757        N  0.04248934  0.48823847  0.03676854    -0.89580
H758        H  0.03687949  0.54328034  0.03263002     0.18110
H759        H  0.96306189  0.49343419  0.46175008     0.18100
N760        N  0.95743188  0.54861685  0.45768698    -0.88610
H761        H  0.06949044  0.49451363  0.03464038     0.35480
H762        H  0.03359068  0.49396771  0.05682751     0.40580
H763        H  0.96629266  0.54298949  0.43758757     0.40200
H764        H  0.93045604  0.54228201  0.45982446     0.35090
C765        C  0.12716675  0.65345557  0.01572000    -0.26640
C766        C  0.12619901  0.67623239  0.49691109    -0.14720
C767        C  0.09588119  0.67975889  0.47919146     0.35910
C768        C  0.06694409  0.66092206  0.48126453    -0.26090
C769        C  0.06670656  0.63917523  0.50129826    -0.15330
C770        C  0.09756989  0.63518898  0.01860200     0.37000
N771        N  0.09922672  0.61424083  0.04039695    -0.89580
H772        H  0.15034722  0.65071349  0.02943082     0.18110
H773        H  0.04372573  0.66372431  0.46759974     0.18100
N774        N  0.09471392  0.70211655  0.45879221    -0.88610
H775        H  0.11846407  0.59944834  0.03434527     0.35480
H776        H  0.07464452  0.60387018  0.04315229     0.40580
H777        H  0.09006079  0.72065532  0.46968218     0.40200
H778        H  0.07253197  0.69973439  0.44536376     0.35090
C779        C  0.93430634  0.66414134  0.48462897    -0.26640
C780        C  0.93313590  0.64015888  0.50181164    -0.14720
C781        C  0.90118635  0.63424444  0.51706086     0.35910
C782        C  0.87176562  0.65289645  0.51566678    -0.26090
C783        C  0.87401893  0.67779778  0.49984515    -0.15330
C784        C  0.90565690  0.68323116  0.48384482     0.37000
N785        N  0.90859061  0.70788292  0.46646062    -0.89580
H786        H  0.95829800  0.66843273  0.47213970     0.18110
H787        H  0.84760638  0.64840197  0.52788218     0.18100
N788        N  0.89892424  0.60999405  0.03478466    -0.88610
H789        H  0.93109104  0.70659226  0.95313268     0.35160
H790        H  0.91383160  0.72470338  0.97976442     0.40580
H791        H  0.87692575  0.59800836  0.52807739     0.40200
H792        H  0.89362171  0.61653623  0.55534235     0.35090
C793        C  0.99927941  0.57886268  0.49995521     0.02800
C794        C  0.96645315  0.59381849  0.50134212    -0.13350
C795        C  0.96666607  0.62301751  0.00416308     0.00300
C796        C  0.99999234  0.63683594  0.00668465    -0.11870
C797        C  0.03283468  0.62257457  0.00396445     0.02790
C798        C  0.03235150  0.59351838  0.50059001    -0.11290
H799        H  0.94094841  0.58279810  0.49973989     0.08390
H800        H  0.00046560  0.65928989  0.00945656     0.05920
H801        H  0.05762924  0.58237174  0.49792604     0.05770
C802        C  0.99986011  0.45782381  0.99540400     0.02800
C803        C  0.03236296  0.44242025  0.99520723    -0.13350
C804        C  0.03166070  0.41308178  0.99534422     0.00300
C805        C  0.99819672  0.39934837  0.99434927    -0.11870
C806        C  0.96576184  0.41426271  0.99543142     0.02790
C807        C  0.96653786  0.44350005  0.99545561    -0.11290
H808        H  0.05813574  0.45323350  0.99538438     0.08390
H809        H  0.99719851  0.37675149  0.99345248     0.05920
H810        H  0.94133658  0.45501489  0.99644095     0.05770
Zr811      Zr  0.82129180  0.76839433  0.99827972     2.17510
O812        O  0.87565906  0.79732529  0.99709590    -0.51660
O813        O  0.85216198  0.72404262  0.99913005    -0.74860
O814        O  0.85076124  0.76946618  0.54380447    -0.81650
O815        O  0.81072661  0.76979956  0.91807329    -0.83390
O816        O  0.80854933  0.77529239  0.57826232    -0.79020
O817        O  0.85221922  0.77135628  0.95338980    -0.90650
O818        O  0.81108085  0.68892474  0.00184081    -0.76610
O819        O  0.78604398  0.74072603  0.52973108    -0.86110
O820        O  0.78685902  0.73819676  0.96913660    -0.85790
O821        O  0.78675216  0.80121069  0.52504358    -0.72550
O822        O  0.78667770  0.79846533  0.96818700    -0.84690
Zr823      Zr  0.67948240  0.77287815  0.99719173     2.26420
Zr824      Zr  0.74960249  0.77304303  0.55550032     2.06270
Zr825      Zr  0.75080212  0.76789117  0.93980825     2.10050
Zr826      Zr  0.75139002  0.71078651  0.00057358     1.78760
O827        O  0.74934509  0.80425038  0.90373322    -0.93490
O828        O  0.75048928  0.68074335  0.54218825    -0.41300
O829        O  0.71448989  0.73989059  0.97088173    -0.77930
O830        O  0.71414365  0.74228365  0.52699049    -0.96620
O831        O  0.71419846  0.80297148  0.52612733    -0.89920
O832        O  0.71528666  0.80039502  0.96593576    -0.92760
C833        C  0.84373169  0.69812651  0.00037764     1.00990
C834        C  0.84341561  0.77138635  0.92724146     1.13920
C835        C  0.84130240  0.77261007  0.56959859     1.04700
O836        O  0.74873371  0.73724435  0.59217738    -0.94920
O837        O  0.68987020  0.77305157  0.57748445    -0.90660
O838        O  0.64837105  0.77319039  0.54218022    -0.83810
C839        C  0.65713970  0.77294496  0.56834300     1.11340
O840        O  0.80517440  0.85880127  0.99188412    -0.96890
Zr841      Zr  0.75062920  0.83016266  0.99505282     1.88940
O842        O  0.64956825  0.81811488  0.99474443    -0.73540
O843        O  0.74747444  0.81190311  0.58828157    -0.52800
O844        O  0.75301611  0.86107984  0.53555487    -0.97480
O845        O  0.74937251  0.86162333  0.95443121    -0.54700
O846        O  0.69201004  0.85253490  0.99696516    -0.74060
C847        C  0.65924609  0.84387220  0.99580981     0.98280
O848        O  0.62590754  0.74285669  0.99878998    -0.62880
O849        O  0.75207318  0.72946078  0.90646464    -0.57680
O850        O  0.64960738  0.76921601  0.95199979    -0.94370
O851        O  0.69145780  0.76404528  0.91727278    -0.92790
O852        O  0.75140628  0.67933936  0.96049843    -0.93150
O853        O  0.69935746  0.67950681  0.00165776    -0.91930
C854        C  0.65859379  0.76593782  0.92610447     1.17130
H855        H  0.80230377  0.72652486  0.95777531     0.33070
H856        H  0.69809510  0.73135554  0.53880203     0.43920
H857        H  0.70017858  0.81121749  0.95338378     0.37450
H858        H  0.80269265  0.81292303  0.53593762     0.33930
H859        H  0.75740293  0.66206554  0.53518195     0.25720
H860        H  0.75244495  0.80339146  0.60694420     0.31650
H861        H  0.74256726  0.87893834  0.52881230     0.37560
H862        H  0.76051057  0.66138266  0.96812117     0.32020
H863        H  0.75604473  0.73850580  0.88789239     0.30900
H864        H  0.74869287  0.79401049  0.88569880     0.32580
H865        H  0.74053908  0.87961559  0.96192883     0.31550
H866        H  0.67833869  0.69175065  0.49782689     0.35550
H867        H  0.62835609  0.73004254  0.98262904     0.28280
H868        H  0.89546792  0.78513418  0.00393123     0.32510
H869        H  0.79703870  0.87833868  0.49421207     0.35360
H870        H  0.77495533  0.71943101  0.91037035     0.27980
H871        H  0.62944623  0.73047755  0.51534784     0.40850
H872        H  0.77131658  0.72651431  0.58931269     0.30900
H873        H  0.77156588  0.68683888  0.55344414     0.38520
H874        H  0.72933806  0.85483721  0.94246989     0.30370
H875        H  0.76929101  0.82319546  0.58396796     0.30430
H876        H  0.87224920  0.81136162  0.51207715     0.30700
C877        C  0.50196747  0.75877058  0.80759432     0.02800
C878        C  0.53469149  0.75707436  0.82271942    -0.13350
C879        C  0.53438162  0.75509887  0.85222311     0.00300
C880        C  0.50094938  0.75363053  0.86624813    -0.11870
C881        C  0.46805052  0.75685981  0.85178207     0.02790
C882        C  0.46880055  0.75908853  0.82229851    -0.11290
H883        H  0.56026964  0.75809270  0.81158131     0.08390
H884        H  0.50066654  0.75146587  0.88899292     0.05920
H885        H  0.44385478  0.76230840  0.81078161     0.05770
Zr886      Zr  0.32053977  0.77057332  0.99704537     2.17510
O887        O  0.37449438  0.74137188  0.99948268    -0.51660
O888        O  0.35124328  0.81535677  0.99716508    -0.74860
O889        O  0.35153582  0.76887679  0.95199866    -0.81650
O890        O  0.30813912  0.76982782  0.57710613    -0.83390
O891        O  0.31067565  0.76685065  0.91641910    -0.79020
O892        O  0.35043824  0.76738575  0.54226201    -0.90650
O893        O  0.31018549  0.85052115  0.99770004    -0.76610
O894        O  0.28636990  0.79925069  0.96592768    -0.86110
O895        O  0.28553921  0.80004330  0.52650715    -0.85790
O896        O  0.28620679  0.73856435  0.96902391    -0.72550
O897        O  0.28487770  0.73960690  0.52572066    -0.84690
Zr898      Zr  0.17923818  0.76687817  0.99617628     2.26420
Zr899      Zr  0.25065474  0.76772506  0.93848238     2.06270
Zr900      Zr  0.24885112  0.76959725  0.55460199     2.10050
Zr901      Zr  0.25096690  0.82843006  0.99554463     1.78760
O902        O  0.24984490  0.73264938  0.59007153    -0.93490
O903        O  0.25366629  0.85969967  0.95489777    -0.41300
O904        O  0.21342612  0.79877750  0.52423267    -0.77930
O905        O  0.21473518  0.79787458  0.96738543    -0.96620
O906        O  0.21399956  0.73731347  0.96669807    -0.89920
O907        O  0.21360494  0.73819634  0.52709786    -0.92760
C908        C  0.34277340  0.84135579  0.99764964     1.00990
C909        C  0.34098453  0.76814561  0.56827968     1.13920
C910        C  0.34334334  0.76768919  0.92578362     1.04700
O911        O  0.24967896  0.80431232  0.90262373    -0.94920
O912        O  0.19085288  0.76748368  0.91609986    -0.90660
O913        O  0.14884693  0.76779416  0.95122250    -0.83810
C914        C  0.15794425  0.76806389  0.92512964     1.11340
O915        O  0.30231959  0.67923278  0.99810721    -0.96890
Zr916      Zr  0.24869079  0.70888626  0.99764706     1.88940
O917        O  0.14768361  0.72262114  0.99557235    -0.73540
O918        O  0.25072857  0.72963870  0.90474623    -0.52800
O919        O  0.24735290  0.67902220  0.95632996    -0.97480
O920        O  0.24929348  0.67663769  0.53763003    -0.54700
O921        O  0.18879410  0.68751420  0.99846763    -0.74060
C922        C  0.15621758  0.69671103  0.99684323     0.98280
O923        O  0.12799128  0.79896426  0.99599080    -0.62880
O924        O  0.24594133  0.80740445  0.58858017    -0.57680
O925        O  0.14767406  0.76635966  0.54082218    -0.94370
O926        O  0.18880270  0.76971385  0.57619169    -0.92790
O927        O  0.24791421  0.85911038  0.53615886    -0.93150
O928        O  0.19858405  0.85914753  0.99276313    -0.91930
C929        C  0.15619282  0.76774240  0.56693432     1.17130
H930        H  0.30067499  0.81143008  0.53838871     0.33070
H931        H  0.19907232  0.80913950  0.95566395     0.43920
H932        H  0.19814831  0.72699709  0.53911767     0.37450
H933        H  0.30232508  0.72703482  0.95808203     0.33930
H934        H  0.25974071  0.87819375  0.96281529     0.25720
H935        H  0.25670863  0.73861230  0.88646236     0.31650
H936        H  0.23670868  0.66120066  0.96308481     0.37560
H937        H  0.25616522  0.87752096  0.52899443     0.32020
H938        H  0.25079082  0.79834703  0.60699996     0.30900
H939        H  0.24695076  0.74246351  0.60821938     0.32580
H940        H  0.23833608  0.65920775  0.53044586     0.31550
H941        H  0.17989517  0.84982370  0.00449558     0.35550
H942        H  0.12947422  0.80925434  0.51396217     0.28280
H943        H  0.39481072  0.75353317  0.99343176     0.32510
H944        H  0.29336990  0.65993522  0.99544766     0.35360
H945        H  0.26772987  0.81890701  0.58479495     0.27980
H946        H  0.13448192  0.81322123  0.98164399     0.40850
H947        H  0.27122511  0.81593365  0.90662877     0.30900
H948        H  0.27577128  0.85406860  0.94458423     0.38520
H949        H  0.23111005  0.68403858  0.55096146     0.30370
H950        H  0.27236510  0.71837920  0.90948255     0.30430
H951        H  0.37177713  0.72752375  0.98424207     0.30700
C952        C  0.99943074  0.77191165  0.80735604     0.02800
C953        C  0.96682890  0.77242231  0.82278111    -0.13350
C954        C  0.96692082  0.76859325  0.85208311     0.00300
C955        C  0.00006112  0.76453111  0.86581630    -0.11870
C956        C  0.03311882  0.76654862  0.85130586     0.02790
C957        C  0.03259627  0.76979860  0.82187828    -0.11290
H958        H  0.94153424  0.77642191  0.81199545     0.08390
H959        H  0.00019016  0.76098245  0.88839402     0.05920
H960        H  0.05782185  0.77122235  0.81031362     0.05770
C961        C  0.49898714  0.76770548  0.68577912     0.02800
C962        C  0.53142531  0.76909618  0.67018440    -0.13350
C963        C  0.53066813  0.77215165  0.64074820     0.00300
C964        C  0.49713952  0.77524160  0.62728781    -0.11870
C965        C  0.46453982  0.77259162  0.64222509     0.02790
C966        C  0.46561087  0.76902655  0.67155048    -0.11290
H967        H  0.55714406  0.76680495  0.68089006     0.08390
H968        H  0.49625248  0.77862186  0.60470288     0.05920
H969        H  0.44063575  0.76666243  0.68324327     0.05770
C970        C  0.99947954  0.77973485  0.68539855     0.02800
C971        C  0.96662555  0.78134372  0.67050117    -0.13350
C972        C  0.96638446  0.77996031  0.64105179     0.00300
C973        C  0.99920643  0.77802961  0.62644337    -0.11870
C974        C  0.03225503  0.77609602  0.64082771     0.02790
C975        C  0.03215734  0.77673285  0.67040293    -0.11290
H976        H  0.94119557  0.78267263  0.68183383     0.08390
H977        H  0.99882879  0.77739656  0.60362082     0.05920
H978        H  0.05725551  0.77379147  0.68179255     0.05770
Zr979      Zr  0.67922543  0.26691836  0.99804949     2.17510
O980        O  0.62520017  0.29576252  0.00201857    -0.51660
O981        O  0.64747154  0.22295959  0.99472148    -0.74860
O982        O  0.64917699  0.27070518  0.95297801    -0.81650
O983        O  0.68993190  0.26947428  0.57831351    -0.83390
O984        O  0.69091255  0.26865526  0.91780060    -0.79020
O985        O  0.64843362  0.26987822  0.54296122    -0.90650
O986        O  0.68838103  0.18769701  0.99346728    -0.76610
O987        O  0.71371218  0.23779161  0.96788523    -0.86110
O988        O  0.71299320  0.23719340  0.52842985    -0.85790
O989        O  0.71441397  0.29841352  0.96956431    -0.72550
O990        O  0.71442704  0.29774938  0.52647750    -0.84690
Zr991      Zr  0.82095867  0.26969567  0.99863040     2.26420
Zr992      Zr  0.75053822  0.26872281  0.94023928     2.06270
Zr993      Zr  0.74948844  0.26772366  0.55622838     2.10050
Zr994      Zr  0.74807505  0.20857269  0.99829385     1.78760
O995        O  0.75063266  0.30568040  0.59004647    -0.93490
O996        O  0.75374349  0.17731634  0.95829197    -0.41300
O997        O  0.78518422  0.23828596  0.52666941    -0.77930
O998        O  0.78567276  0.23868324  0.97014484    -0.96620
O999        O  0.78678640  0.29911530  0.96821281    -0.89920
O1000       O  0.78597370  0.29871530  0.52856560    -0.92760
C1001       C  0.65589996  0.19713178  0.99265439     1.00990
C1002       C  0.65726678  0.27040815  0.56909327     1.13920
C1003       C  0.65813592  0.27037720  0.92686585     1.04700
O1004       O  0.75248088  0.23235350  0.90469651    -0.94920
O1005       O  0.81066456  0.26841650  0.91837898    -0.90660
O1006       O  0.85214248  0.26877385  0.95372277    -0.83810
C1007       C  0.84345206  0.26808608  0.92757192     1.11340
O1008       O  0.69776489  0.35749570  0.99954039    -0.96890
Zr1009     Zr  0.75142026  0.32790171  0.99804756     1.88940
O1010       O  0.85270046  0.31418142  0.99878959    -0.73540
O1011       O  0.75102875  0.30692903  0.90609078    -0.52800
O1012       O  0.75062139  0.35761226  0.95616750    -0.97480
O1013       O  0.75303207  0.36070910  0.53709197    -0.54700
O1014       O  0.81097948  0.34902925  0.99604993    -0.74060
C1015       C  0.84360090  0.34000734  0.99700430     0.98280
O1016       O  0.87188206  0.23725584  0.99874812    -0.62880
O1017       O  0.74911782  0.23088095  0.59188476    -0.57680
O1018       O  0.85122189  0.26642600  0.54378344    -0.94370
O1019       O  0.80873274  0.26478450  0.57853294    -0.92790
O1020       O  0.74224059  0.17805456  0.53930909    -0.93150
O1021       O  0.79893513  0.17654065  0.50259080    -0.91930
C1022       C  0.84165413  0.26456601  0.56973697     1.17130
H1023       H  0.69722341  0.22591969  0.54014088     0.33070
H1024       H  0.80147119  0.22725321  0.95882069     0.43920
H1025       H  0.80138728  0.30974224  0.54057623     0.37450
H1026       H  0.69875986  0.31003043  0.95819554     0.33930
H1027       H  0.74507804  0.15899900  0.96541010     0.25720
H1028       H  0.74640574  0.29787982  0.88775670     0.31650
H1029       H  0.76183835  0.37539362  0.96215179     0.37560
H1030       H  0.73306500  0.16017903  0.53175263     0.32020
H1031       H  0.74286637  0.24045593  0.60965385     0.30900
H1032       H  0.75192420  0.29628023  0.60865969     0.32580
H1033       H  0.76274574  0.37823730  0.52884265     0.31550
H1034       H  0.82051236  0.18809680  0.99831397     0.35550
H1035       H  0.86881193  0.22547436  0.51580468     0.28280
H1036       H  0.60524171  0.28439986  0.99419437     0.32510
H1037       H  0.70649899  0.37678660  0.99615055     0.35360
H1038       H  0.72757529  0.21937111  0.58756812     0.27980
H1039       H  0.86651585  0.22421743  0.98322736     0.40850
H1040       H  0.73001636  0.22141608  0.90768290     0.30900
H1041       H  0.73469135  0.18350331  0.94501871     0.38520
H1042       H  0.77251805  0.35392045  0.54966077     0.30370
H1043       H  0.72874149  0.31769733  0.90999943     0.30430
H1044       H  0.62882666  0.31125515  0.98838519     0.30700
C1045       C  0.50140580  0.27650487  0.80798713     0.02800
C1046       C  0.53427658  0.27427127  0.82282089    -0.13350
C1047       C  0.53420074  0.27053462  0.85218719     0.00300
C1048       C  0.50088175  0.26809092  0.86627725    -0.11870
C1049       C  0.46791842  0.27178842  0.85213363     0.02790
C1050       C  0.46843554  0.27601155  0.82290612    -0.11290
H1051       H  0.55971761  0.27565171  0.81155704     0.08390
H1052       H  0.50065272  0.26421327  0.88880086     0.05920
H1053       H  0.44329060  0.27938168  0.81169455     0.05770
Zr1054     Zr  0.32070617  0.26673390  0.99669867     2.17510
O1055       O  0.37551468  0.29491149  0.99323624    -0.51660
O1056       O  0.35156442  0.22228958  0.00034917    -0.74860
O1057       O  0.35093073  0.27145800  0.54163326    -0.81650
O1058       O  0.30998287  0.27069609  0.91644935    -0.83390
O1059       O  0.30914581  0.26929396  0.57677934    -0.79020
O1060       O  0.35144159  0.27008222  0.95181406    -0.90650
O1061       O  0.30993557  0.18733471  0.00009472    -0.76610
O1062       O  0.28597291  0.23754725  0.52708727    -0.86110
O1063       O  0.28624015  0.23747377  0.96660909    -0.85790
O1064       O  0.28582521  0.29852288  0.52447063    -0.72550
O1065       O  0.28582267  0.29787624  0.96784576    -0.84690
Zr1066     Zr  0.17893693  0.27060969  0.99655921     2.26420
Zr1067     Zr  0.24985519  0.26877286  0.55428998     2.06270
Zr1068     Zr  0.25011629  0.26826850  0.93844728     2.10050
Zr1069     Zr  0.25063193  0.20893978  0.99699979     1.78760
O1070       O  0.24956997  0.30549718  0.90326694    -0.93490
O1071       O  0.24621993  0.17742246  0.53736056    -0.41300
O1072       O  0.21391111  0.23909453  0.96851265    -0.77930
O1073       O  0.21371675  0.23910710  0.52515859    -0.96620
O1074       O  0.21405444  0.29965170  0.52618786    -0.89920
O1075       O  0.21401274  0.29933009  0.96583455    -0.92760
C1076       C  0.34257066  0.19642648  0.00130920     1.00990
C1077       C  0.34270236  0.27143196  0.92569717     1.13920
C1078       C  0.34183849  0.27135863  0.56770876     1.04700
O1079       O  0.24773172  0.23142291  0.58933370    -0.94920
O1080       O  0.19043930  0.26950140  0.57657337    -0.90660
O1081       O  0.14843458  0.27315012  0.54174732    -0.83810
C1082       C  0.15767966  0.27174206  0.56777731     1.11340
O1083       O  0.30302837  0.35786313  0.99569688    -0.96890
Zr1084     Zr  0.24912348  0.32836952  0.99561896     1.88940
O1085       O  0.14793101  0.31512511  0.99600507    -0.73540
O1086       O  0.24974921  0.30607235  0.58891182    -0.52800
O1087       O  0.24748903  0.35831190  0.53687751    -0.97480
O1088       O  0.25045659  0.36031740  0.95539743    -0.54700
O1089       O  0.18965857  0.35003565  0.99497175    -0.74060
C1090       C  0.15694464  0.34102070  0.99556094     0.98280
O1091       O  0.12696813  0.23912814  0.99852033    -0.62880
O1092       O  0.25013028  0.23069668  0.90412391    -0.57680
O1093       O  0.14826620  0.26739485  0.95162223    -0.94370
O1094       O  0.19033377  0.26689880  0.91648689    -0.92790
O1095       O  0.25428932  0.17858027  0.95616426    -0.93150
O1096       O  0.19875242  0.17766964  0.99381220    -0.91930
C1097       C  0.15746796  0.26634471  0.92554123     1.17130
H1098       H  0.30179491  0.22615560  0.95497078     0.33070
H1099       H  0.19776682  0.22788101  0.53676853     0.43920
H1100       H  0.19869691  0.31044172  0.95369945     0.37450
H1101       H  0.30155935  0.31011266  0.53566732     0.33930
H1102       H  0.25371224  0.15900342  0.53003159     0.25720
H1103       H  0.25600112  0.29676981  0.60694757     0.31650
H1104       H  0.23735106  0.37622931  0.53000399     0.37560
H1105       H  0.26291827  0.16045915  0.96373073     0.32020
H1106       H  0.25372417  0.24019625  0.88573536     0.30900
H1107       H  0.24706376  0.29576144  0.88504586     0.32580
H1108       H  0.24198767  0.37839780  0.96292388     0.31550
H1109       H  0.17901285  0.18746591  0.50380837     0.35550
H1110       H  0.13289006  0.22426865  0.98489349     0.28280
H1111       H  0.39497761  0.28378482  0.00219248     0.32510
H1112       H  0.29421372  0.37721000  0.49813108     0.35360
H1113       H  0.27302967  0.22048043  0.90742634     0.27980
H1114       H  0.12849165  0.22952515  0.51701552     0.40850
H1115       H  0.27087304  0.22128429  0.58701536     0.30900
H1116       H  0.26630205  0.18307251  0.54987514     0.38520
H1117       H  0.23059465  0.35406749  0.94296741     0.30370
H1118       H  0.27117207  0.31767809  0.58424863     0.30430
H1119       H  0.37148910  0.31098127  0.50584966     0.30700
C1120       C  0.99991702  0.26666792  0.80725689     0.02800
C1121       C  0.96699281  0.26686673  0.82221431    -0.13350
C1122       C  0.96690284  0.26907924  0.85171111     0.00300
C1123       C  0.00021623  0.27126376  0.86577793    -0.11870
C1124       C  0.03328526  0.26885690  0.85143311     0.02790
C1125       C  0.03292706  0.26668887  0.82198902    -0.11290
H1126       H  0.94174034  0.26497025  0.81083973     0.08390
H1127       H  0.00045707  0.27395229  0.88842601     0.05920
H1128       H  0.05809993  0.26462891  0.81045261     0.05770
C1129       C  0.49885054  0.27786820  0.68602052     0.02800
C1130       C  0.53158024  0.27671194  0.67083007    -0.13350
C1131       C  0.53124817  0.27444869  0.64135593     0.00300
C1132       C  0.49791641  0.27176733  0.62753445    -0.11870
C1133       C  0.46509285  0.27450859  0.64209962     0.02790
C1134       C  0.46581698  0.27821272  0.67132493    -0.11290
H1135       H  0.55716281  0.27761967  0.68191009     0.08390
H1136       H  0.49744834  0.26828239  0.60500664     0.05920
H1137       H  0.44087137  0.28170215  0.68272396     0.05770
C1138       C  0.00070222  0.26216288  0.68549281     0.02800
C1139       C  0.96789488  0.25955625  0.67074317    -0.13350
C1140       C  0.96750021  0.26018876  0.64118129     0.00300
C1141       C  0.00014571  0.26414159  0.62652869    -0.11870
C1142       C  0.03290072  0.26795020  0.64090716     0.02790
C1143       C  0.03305589  0.26656159  0.67043685    -0.11290
H1144       H  0.94275489  0.25698697  0.68229009     0.08390
H1145       H  0.99998462  0.26495341  0.60372134     0.05920
H1146       H  0.05827857  0.26918939  0.68174753     0.05770
C1147       C  0.50028059  0.95856548  0.99491105     0.02800
C1148       C  0.53387253  0.94473066  0.99475663    -0.13350
C1149       C  0.53539367  0.91566888  0.99702305     0.00300
C1150       C  0.50340197  0.90033202  0.99995834    -0.11870
C1151       C  0.46944863  0.91334810  0.99805524     0.02790
C1152       C  0.46812904  0.94267807  0.99632934    -0.11290
H1153       H  0.55881434  0.95651033  0.99259041     0.08390
H1154       H  0.50521075  0.87794174  0.00299508     0.05920
H1155       H  0.44216706  0.95310739  0.99604221     0.05770
C1156       C  0.49936803  0.07956834  0.99423452     0.02800
C1157       C  0.53175202  0.09454506  0.99023864    -0.13350
C1158       C  0.53196760  0.12380331  0.99116916     0.00300
C1159       C  0.49913417  0.13798238  0.99491514    -0.11870
C1160       C  0.46637626  0.12344704  0.99818078     0.02790
C1161       C  0.46676125  0.09413461  0.99816761    -0.11290
H1162       H  0.55672091  0.08338512  0.98630243     0.08390
H1163       H  0.49907865  0.16060250  0.99533663     0.05920
H1164       H  0.44186556  0.08262275  0.00167202     0.05770
C1165       C  0.52287211  0.00438516  0.01201404    -0.26640
C1166       C  0.49930638  0.98959811  0.99431789    -0.14720
C1167       C  0.47574686  0.00467672  0.97644287     0.35910
C1168       C  0.47584522  0.03398941  0.97691258    -0.26090
C1169       C  0.49961233  0.04864043  0.99450578    -0.15330
C1170       C  0.52328588  0.03361826  0.01219820     0.37000
N1171       N  0.54720044  0.04797858  0.03090978    -0.89580
H1172       H  0.54084899  0.99317717  0.02611186     0.18110
H1173       H  0.45777824  0.04537529  0.96302500     0.18100
N1174       N  0.45253100  0.99041714  0.95714835    -0.88610
H1175       H  0.57372129  0.04198164  0.52617511     0.35480
H1176       H  0.54140659  0.04143630  0.55148755     0.40580
H1177       H  0.45887806  0.99723718  0.93675776     0.40200
H1178       H  0.42583254  0.99625494  0.96146478     0.35090
C1179       C  0.01549804  0.28557314  0.73031936    -0.26640
C1180       C  0.00100687  0.26216568  0.71673112    -0.14720
C1181       C  0.98622228  0.24009315  0.73320939     0.35910
C1182       C  0.98550348  0.24248541  0.76262152    -0.26090
C1183       C  0.99996109  0.26594736  0.77611631    -0.15330
C1184       C  0.01510356  0.28784336  0.75967847     0.37000
N1185       N  0.02897803  0.31313952  0.77177249    -0.89580
H1186       H  0.02647533  0.30269570  0.71789949     0.18110
H1187       H  0.97442945  0.22547468  0.77514316     0.18100
N1188       N  0.97331209  0.21449619  0.72115417    -0.88610
H1189       H  0.05699029  0.31341568  0.76857128     0.35480
H1190       H  0.02443976  0.31415482  0.79342154     0.40580
H1191       H  0.97891577  0.21325344  0.69966701     0.40200
H1192       H  0.94519698  0.21392350  0.72368206     0.35090
C1193       C  0.43183596  0.16234554  0.51994186    -0.26640
C1194       C  0.43221097  0.13949282  0.00152796    -0.14720
C1195       C  0.40126330  0.13393838  0.98498118     0.35910
C1196       C  0.37127144  0.15193971  0.98653492    -0.26090
C1197       C  0.37212479  0.17581185  0.00347930    -0.15330
C1198       C  0.40228375  0.18066439  0.52095455     0.37000
N1199       N  0.40292179  0.20434839  0.53942116    -0.89580
H1200       H  0.45516858  0.16630688  0.53313482     0.18110
H1201       H  0.34797216  0.14823713  0.97322498     0.18100
N1202       N  0.40098873  0.11092281  0.96570527    -0.88610
H1203       H  0.42720631  0.20505985  0.55067941     0.35480
H1204       H  0.38223258  0.20162333  0.55425826     0.40580
H1205       H  0.42063829  0.11490561  0.95030449     0.40200
H1206       H  0.37616021  0.10973155  0.95523672     0.35090
C1207       C  0.37146356  0.25731837  0.61286023    -0.26640
C1208       C  0.37138924  0.27402716  0.58844355    -0.14720
C1209       C  0.40057516  0.29234438  0.58334885     0.35910
C1210       C  0.42965617  0.29307223  0.60206617    -0.26090
C1211       C  0.43084076  0.27545418  0.62578057    -0.15330
C1212       C  0.40107743  0.25764450  0.63156730     0.37000
N1213       N  0.40187024  0.23876923  0.65522783    -0.89580
H1214       H  0.34901283  0.24321238  0.61676898     0.18110
H1215       H  0.45205203  0.30709525  0.59759942     0.18100
N1216       N  0.40082769  0.31035928  0.55913854    -0.88610
H1217       H  0.38031970  0.22463806  0.65414940     0.35480
H1218       H  0.39718758  0.25050130  0.67331178     0.40580
H1219       H  0.42404746  0.30596490  0.54734358     0.40200
H1220       H  0.40273122  0.33097702  0.56607079     0.35090
C1221       C  0.12899870  0.28065742  0.87987433    -0.26640
C1222       C  0.12769772  0.26456843  0.90473709    -0.14720
C1223       C  0.09676269  0.24814520  0.91044688     0.35910
C1224       C  0.06720221  0.24923978  0.89205969    -0.26090
C1225       C  0.06734098  0.26663512  0.86810886    -0.15330
C1226       C  0.09892542  0.28215333  0.86161943     0.37000
N1227       N  0.09994665  0.30010191  0.83723737    -0.89580
H1228       H  0.15283368  0.29316195  0.87542330     0.18110
H1229       H  0.04353937  0.23659046  0.89667712     0.18100
N1230       N  0.09543013  0.23038647  0.93497486    -0.88610
H1231       H  0.12511933  0.30999010  0.83551291     0.35480
H1232       H  0.08074762  0.31583609  0.84018208     0.40580
H1233       H  0.11520696  0.21499650  0.93251168     0.40200
H1234       H  0.07054987  0.22001572  0.93636020     0.35090
C1235       C  0.09907635  0.29099396  0.58394239    -0.26640
C1236       C  0.12809486  0.27276246  0.58878957    -0.14720
C1237       C  0.12750175  0.25518112  0.61277558     0.35910
C1238       C  0.09679394  0.25505532  0.63038699    -0.26090
C1239       C  0.06693966  0.27237499  0.62470289    -0.15330
C1240       C  0.06908095  0.29162850  0.60190919     0.37000
N1241       N  0.04209235  0.31266302  0.59678608    -0.89580
H1242       H  0.09991425  0.30520559  0.56612809     0.18110
H1243       H  0.09546065  0.24042089  0.64787167     0.18100
N1244       N  0.15728210  0.23671355  0.61851251    -0.88610
H1245       H  0.02795530  0.30724261  0.57856266     0.35480
H1246       H  0.02362648  0.31415116  0.61336000     0.40580
H1247       H  0.15846994  0.22217953  0.60221024     0.40200
H1248       H  0.15267646  0.22536766  0.63707797     0.35090
C1249       C  0.52172329  0.29670224  0.73173060    -0.26640
C1250       C  0.49899603  0.27814890  0.71726371    -0.14720
C1251       C  0.47709467  0.25942905  0.73281774     0.35910
C1252       C  0.47813872  0.25960105  0.76225415    -0.26090
C1253       C  0.50091632  0.27798226  0.77677802    -0.15330
C1254       C  0.52273780  0.29685021  0.76132138     0.37000
N1255       N  0.54526827  0.31659098  0.77553656    -0.89580
H1256       H  0.53846061  0.31134964  0.72003386     0.18110
H1257       H  0.46155053  0.24476009  0.77384894     0.18100
N1258       N  0.45458823  0.23951259  0.71879893    -0.88610
H1259       H  0.57198634  0.31341264  0.76899719     0.35480
H1260       H  0.53754088  0.33664304  0.76913464     0.40580
H1261       H  0.46239185  0.21951501  0.72531425     0.40200
H1262       H  0.42786279  0.24269421  0.72532296     0.35090
C1263       C  0.37136072  0.25977291  0.87934418    -0.26640
C1264       C  0.37290773  0.27384607  0.90519542    -0.14720
C1265       C  0.40446753  0.28893888  0.91201111     0.35910
C1266       C  0.43416427  0.28870934  0.89380177    -0.26090
C1267       C  0.43376732  0.27325121  0.86881805    -0.15330
C1268       C  0.40166736  0.25901211  0.86117683     0.37000
N1269       N  0.40027547  0.24310414  0.83564998    -0.89580
H1270       H  0.34710110  0.24826009  0.87394408     0.18110
H1271       H  0.45805672  0.30053373  0.89953832     0.18100
N1272       N  0.40654164  0.30477063  0.93743259    -0.88610
H1273       H  0.37473664  0.23401537  0.83315147     0.35480
H1274       H  0.41877365  0.22670910  0.83761212     0.40580
H1275       H  0.41175960  0.32559480  0.93203572     0.40200
H1276       H  0.42849984  0.29734482  0.94916084     0.35090
C1277       C  0.62652191  0.15204054  0.50525610    -0.26640
C1278       C  0.62588746  0.17697859  0.98957092    -0.14720
C1279       C  0.59595501  0.18276143  0.97196013     0.35910
C1280       C  0.56669523  0.16405383  0.97148710    -0.26090
C1281       C  0.56611148  0.14012011  0.98875634    -0.15330
C1282       C  0.59674424  0.13380120  0.50532755     0.37000
N1283       N  0.59703756  0.10971791  0.52338601    -0.89580
H1284       H  0.64947939  0.14737050  0.51866884     0.18110
H1285       H  0.54359159  0.16866690  0.95821945     0.18100
N1286       N  0.59547390  0.20733447  0.95433240    -0.88610
H1287       H  0.60083395  0.11640227  0.54408716     0.35480
H1288       H  0.61920573  0.09737008  0.51780364     0.40580
H1289       H  0.59092813  0.22452175  0.96729323     0.40200
H1290       H  0.57350100  0.20674582  0.94049158     0.35090
C1291       C  0.59793784  0.28997378  0.58242139    -0.26640
C1292       C  0.62719049  0.27273634  0.58954043    -0.14720
C1293       C  0.62627987  0.25752578  0.61515193     0.35910
C1294       C  0.59517853  0.25892210  0.63238676    -0.26090
C1295       C  0.56524032  0.27530336  0.62450176    -0.15330
C1296       C  0.56745028  0.29174931  0.59976086     0.37000
N1297       N  0.53890715  0.31063227  0.59229237    -0.89580
H1298       H  0.59875338  0.30231289  0.56319168     0.18110
H1299       H  0.59378688  0.24641859  0.65146457     0.18100
N1300       N  0.65625473  0.24007847  0.62309518    -0.88610
H1301       H  0.52938021  0.30520541  0.57233472     0.35480
H1302       H  0.54979746  0.33075987  0.59094307     0.40580
H1303       H  0.65811702  0.22404941  0.60833126     0.40200
H1304       H  0.65136583  0.23051306  0.64260404     0.35090
C1305       C  0.90419110  0.27625629  0.63212215    -0.26640
C1306       C  0.93302249  0.25841424  0.62524873    -0.14720
C1307       C  0.92974287  0.24078112  0.60175678     0.35910
C1308       C  0.89918112  0.24267981  0.58448200    -0.26090
C1309       C  0.87110564  0.26140534  0.59052933    -0.15330
C1310       C  0.87303896  0.27778982  0.61509254     0.37000
N1311       N  0.84452450  0.29705526  0.62174282    -0.89580
H1312       H  0.90661097  0.28983473  0.65017727     0.18110
H1313       H  0.89754883  0.22957096  0.56601044     0.18100
N1314       N  0.95747085  0.22090978  0.59535027    -0.88610
H1315       H  0.85124369  0.30871147  0.63952608     0.35480
H1316       H  0.82170027  0.28530850  0.62729675     0.40580
H1317       H  0.94574854  0.20102506  0.59537577     0.40200
H1318       H  0.96699945  0.22511141  0.57499949     0.35090
C1319       C  0.87155608  0.28131220  0.88118180    -0.26640
C1320       C  0.87364484  0.26659612  0.90687848    -0.14720
C1321       C  0.90515737  0.25090769  0.91281901     0.35910
C1322       C  0.93382666  0.25083343  0.89351850    -0.26090
C1323       C  0.93301692  0.26711135  0.86882638    -0.15330
C1324       C  0.90113360  0.28206705  0.86235286     0.37000
N1325       N  0.89910659  0.29893928  0.83739791    -0.89580
H1326       H  0.84749891  0.29329959  0.87624910     0.18110
H1327       H  0.95765469  0.23853059  0.89833641     0.18100
N1328       N  0.90827705  0.23512877  0.93853334    -0.88610
H1329       H  0.89390842  0.31950827  0.84339842     0.35480
H1330       H  0.87712613  0.29197303  0.82549664     0.40580
H1331       H  0.91585175  0.24919281  0.95420134     0.40200
H1332       H  0.92949457  0.22076699  0.93716639     0.35090
C1333       C  0.62962025  0.25724908  0.88084855    -0.26640
C1334       C  0.62816461  0.27224271  0.90618924    -0.14720
C1335       C  0.59692899  0.28801803  0.91227247     0.35910
C1336       C  0.56764708  0.28782683  0.89375114    -0.26090
C1337       C  0.56802087  0.27168170  0.86920821    -0.15330
C1338       C  0.59968236  0.25661237  0.86245941     0.37000
N1339       N  0.60110472  0.23978596  0.83768747    -0.89580
H1340       H  0.65343821  0.24504828  0.87585779     0.18110
H1341       H  0.54408358  0.30027220  0.89889723     0.18100
N1342       N  0.59476260  0.30454223  0.93723828    -0.88610
H1343       H  0.60630013  0.21918617  0.84387073     0.35480
H1344       H  0.62289199  0.24669459  0.82537370     0.40580
H1345       H  0.57226514  0.29780956  0.94886431     0.40200
H1346       H  0.59038571  0.32530750  0.93123829     0.35090
C1347       C  0.02233076  0.79299247  0.76237014    -0.26640
C1348       C  0.99882443  0.77420595  0.77610317    -0.14720
C1349       C  0.97528354  0.75752429  0.75985838     0.35910
C1350       C  0.97558755  0.76016856  0.73040408    -0.26090
C1351       C  0.99925701  0.77875770  0.71666852    -0.15330
C1352       C  0.02274519  0.79550384  0.73283575     0.37000
N1353       N  0.04659502  0.81518612  0.71924302    -0.89580
H1354       H  0.04011992  0.80603026  0.77476924     0.18110
H1355       H  0.95792016  0.74702728  0.71800266     0.18100
N1356       N  0.95178005  0.73745072  0.77325553    -0.88610
H1357       H  0.06219224  0.82576726  0.73411711     0.35480
H1358       H  0.03052898  0.83018190  0.70919314     0.40580
H1359       H  0.96810416  0.72238583  0.78293798     0.40200
H1360       H  0.93608666  0.72701709  0.75833591     0.35090
C1361       C  0.40433759  0.85401788  0.98239332    -0.26640
C1362       C  0.37323344  0.86160472  0.99723173    -0.14720
C1363       C  0.37275193  0.88746442  0.01143061     0.35910
C1364       C  0.40437989  0.90413144  0.01164525    -0.26090
C1365       C  0.43583936  0.89600588  0.99700103    -0.15330
C1366       C  0.43488610  0.87106348  0.98134167     0.37000
N1367       N  0.46448022  0.86313606  0.96359053    -0.89580
H1368       H  0.40477323  0.83467661  0.97105330     0.18110
H1369       H  0.40455381  0.92330867  0.52358304     0.18100
N1370       N  0.34092730  0.89626247  0.52637068    -0.88610
H1371       H  0.45492694  0.86152717  0.94295039     0.35480
H1372       H  0.47345688  0.84339905  0.97003368     0.40580
H1373       H  0.32111866  0.90092575  0.51136842     0.40200
H1374       H  0.34592588  0.91488892  0.53704529     0.35090
C1375       C  0.42929134  0.75052393  0.60422853    -0.26640
C1376       C  0.43030014  0.77009640  0.62608629    -0.14720
C1377       C  0.40024193  0.78785639  0.63028919     0.35910
C1378       C  0.37035683  0.78604616  0.61191201    -0.26090
C1379       C  0.37040413  0.76730094  0.58928544    -0.15330
C1380       C  0.39997242  0.74917086  0.58575308     0.37000
N1381       N  0.40038378  0.72933426  0.56330801    -0.89580
H1382       H  0.45199748  0.73657562  0.60100231     0.18110
H1383       H  0.34766798  0.80012549  0.61448972     0.18100
N1384       N  0.40103335  0.80877941  0.65183040    -0.88610
H1385       H  0.40304308  0.70938137  0.57213348     0.35480
H1386       H  0.42324444  0.73325949  0.55085675     0.40580
H1387       H  0.39830036  0.79862143  0.67124441     0.40200
H1388       H  0.37852675  0.82189044  0.65007808     0.35090
C1389       C  0.12747253  0.78514771  0.61094524    -0.26640
C1390       C  0.12604376  0.76743521  0.58751882    -0.14720
C1391       C  0.09506236  0.75054592  0.58343497     0.35910
C1392       C  0.06581347  0.75267865  0.60216743    -0.26090
C1393       C  0.06613274  0.77185679  0.62441509    -0.15330
C1394       C  0.09766655  0.78776667  0.62917421     0.37000
N1395       N  0.09897500  0.80755078  0.65162106    -0.89580
H1396       H  0.15116403  0.79806085  0.61435597     0.18110
H1397       H  0.04206834  0.73979756  0.59887202     0.18100
N1398       N  0.09343455  0.73102775  0.56055850    -0.88610
H1399       H  0.10400301  0.82728885  0.64290189     0.35480
H1400       H  0.12078796  0.80234784  0.66463573     0.40580
H1401       H  0.08885494  0.74243359  0.54206176     0.40200
H1402       H  0.07102104  0.71782901  0.56282414     0.35090
C1403       C  0.12924902  0.75433960  0.87926256    -0.26640
C1404       C  0.12786660  0.76950736  0.90449916    -0.14720
C1405       C  0.09648599  0.78507411  0.91066555     0.35910
C1406       C  0.06702321  0.78454286  0.89234746    -0.26090
C1407       C  0.06724351  0.76813630  0.86797561    -0.15330
C1408       C  0.09904962  0.75327563  0.86111339     0.37000
N1409       N  0.10037408  0.73622842  0.83649571    -0.89580
H1410       H  0.15318870  0.74230648  0.87421415     0.18110
H1411       H  0.04341413  0.79690675  0.89756406     0.18100
N1412       N  0.09433408  0.80169220  0.93556974    -0.88610
H1413       H  0.10594322  0.71573264  0.84283190     0.35480
H1414       H  0.12189719  0.74320212  0.82393947     0.40580
H1415       H  0.07221101  0.79471772  0.94748712     0.40200
H1416       H  0.08944173  0.82237725  0.92952763     0.35090
C1417       C  0.48045939  0.74269950  0.76077334    -0.26640
C1418       C  0.50211886  0.76101359  0.77640516    -0.14720
C1419       C  0.52305471  0.78128670  0.76208635     0.35910
C1420       C  0.52200226  0.78286651  0.73257073    -0.26090
C1421       C  0.50012860  0.76467770  0.71692852    -0.15330
C1422       C  0.47947851  0.74421787  0.73126664     0.37000
N1423       N  0.45819038  0.72447262  0.71594577    -0.89580
H1424       H  0.46452172  0.72685813  0.77153520     0.18110
H1425       H  0.53779024  0.79882043  0.72184996     0.18100
N1426       N  0.54450624  0.80089278  0.77745015    -0.88610
H1427       H  0.43130799  0.72627714  0.72262958     0.35480
H1428       H  0.46718872  0.70442068  0.72121126     0.40580
H1429       H  0.53572450  0.82100376  0.77218964     0.40200
H1430       H  0.57138121  0.79892446  0.77080126     0.35090
C1431       C  0.43602636  0.77837607  0.89207098    -0.26640
C1432       C  0.43414781  0.76114456  0.86838705    -0.14720
C1433       C  0.40094671  0.74791933  0.86217932     0.35910
C1434       C  0.37105739  0.75121758  0.88043165    -0.26090
C1435       C  0.37400241  0.76686733  0.90531879    -0.15330
C1436       C  0.40700034  0.78082042  0.91085728     0.37000
N1437       N  0.41127173  0.79754140  0.93556400    -0.89580
H1438       H  0.46092871  0.78949050  0.89651360     0.18110
H1439       H  0.34597763  0.74045500  0.87574651     0.18100
N1440       N  0.39778037  0.73028695  0.83809508    -0.88610
H1441       H  0.43496017  0.80946623  0.93419980     0.35480
H1442       H  0.41527883  0.78390335  0.95254714     0.40580
H1443       H  0.37692196  0.73808848  0.82544406     0.40200
H1444       H  0.39025455  0.71034979  0.84506871     0.35090
C1445       C  0.60834670  0.86688496  0.97158008    -0.26640
C1446       C  0.63043520  0.86497750  0.99537291    -0.14720
C1447       C  0.62402207  0.88252789  0.51855657     0.35910
C1448       C  0.59363959  0.90024456  0.51822940    -0.26090
C1449       C  0.57007630  0.90059961  0.99509374    -0.15330
C1450       C  0.57821876  0.88458852  0.97109478     0.37000
N1451       N  0.55612923  0.88659891  0.94625306    -0.89580
H1452       H  0.61459713  0.85441569  0.95338529     0.18110
H1453       H  0.58748463  0.91293229  0.53642278     0.18100
N1454       N  0.64776270  0.88172610  0.54250108    -0.88610
H1455       H  0.56695643  0.87447105  0.93006929     0.35480
H1456       H  0.53092497  0.87791309  0.95099163     0.40580
H1457       H  0.64555105  0.86191388  0.55174485     0.40200
H1458       H  0.63935556  0.89606200  0.55766846     0.35090
C1459       C  0.59655565  0.75539102  0.58174428    -0.26640
C1460       C  0.62686475  0.77151964  0.58886320    -0.14720
C1461       C  0.62669135  0.78643697  0.61446966     0.35910
C1462       C  0.59522446  0.78617790  0.63140463    -0.26090
C1463       C  0.56442187  0.77078819  0.62358956    -0.15330
C1464       C  0.56586124  0.75446436  0.59897462     0.37000
N1465       N  0.53639290  0.73646084  0.59156668    -0.89580
H1466       H  0.59670700  0.74316731  0.56261869     0.18110
H1467       H  0.59446147  0.79849853  0.65044165     0.18100
N1468       N  0.65763203  0.80270715  0.62260682    -0.88610
H1469       H  0.52727942  0.74226776  0.57152438     0.35480
H1470       H  0.54621466  0.71603730  0.59044126     0.40580
H1471       H  0.67841674  0.78877142  0.62767077     0.40200
H1472       H  0.65213590  0.81374900  0.64104183     0.35090
C1473       C  0.87456090  0.79595379  0.60847714    -0.26640
C1474       C  0.87068320  0.77302225  0.59047056    -0.14720
C1475       C  0.89679056  0.75162191  0.59071458     0.35910
C1476       C  0.92718399  0.75411651  0.60810088    -0.26090
C1477       C  0.93209269  0.77759723  0.62518202    -0.15330
C1478       C  0.90539309  0.79862741  0.62569220     0.37000
N1479       N  0.91034471  0.82296305  0.64280735    -0.89580
H1480       H  0.85443418  0.81239349  0.60805084     0.18110
H1481       H  0.94754554  0.73783916  0.60804628     0.18100
N1482       N  0.89243807  0.72759554  0.57301767    -0.88610
H1483       H  0.88829735  0.83647679  0.64066373     0.35480
H1484       H  0.93298868  0.83371606  0.63509733     0.40580
H1485       H  0.86927207  0.71690764  0.57981559     0.40200
H1486       H  0.91416954  0.71383996  0.57553336     0.35090
C1487       C  0.87115387  0.75815350  0.88112790    -0.26640
C1488       C  0.87339042  0.77306585  0.90646772    -0.14720
C1489       C  0.90520095  0.78829891  0.91244414     0.35910
C1490       C  0.93454864  0.78714102  0.89378490    -0.26090
C1491       C  0.93329451  0.77093489  0.86927172    -0.15330
C1492       C  0.90093924  0.75666364  0.86256743     0.37000
N1493       N  0.89879363  0.73998175  0.83757916    -0.89580
H1494       H  0.84669915  0.74657387  0.87643238     0.18110
H1495       H  0.95887367  0.79885179  0.89857506     0.18100
N1496       N  0.90766329  0.80493175  0.93747236    -0.88610
H1497       H  0.87313132  0.73093770  0.83574330     0.35480
H1498       H  0.91721331  0.72355997  0.83977117     0.40580
H1499       H  0.88865202  0.82099654  0.93569660     0.40200
H1500       H  0.93306171  0.81448154  0.93893183     0.35090
C1501       C  0.56734859  0.77741547  0.89148816    -0.26640
C1502       C  0.56803524  0.75830411  0.86923351    -0.14720
C1503       C  0.60003050  0.74289447  0.86426837     0.35910
C1504       C  0.63009336  0.74637846  0.88232773    -0.26090
C1505       C  0.62844847  0.76456586  0.90543227    -0.15330
C1506       C  0.59691602  0.78068240  0.90952920     0.37000
N1507       N  0.59531272  0.80081851  0.93176891    -0.89580
H1508       H  0.54341185  0.79004096  0.89482835     0.18110
H1509       H  0.65431754  0.73409484  0.87901518     0.18100
N1510       N  0.60157647  0.72328203  0.84154275    -0.88610
H1511       H  0.57033210  0.81106749  0.93195138     0.35480
H1512       H  0.61489728  0.81590641  0.92710000     0.40580
H1513       H  0.58269917  0.70752040  0.84582701     0.40200
H1514       H  0.62697161  0.71369762  0.84078010     0.35090
C1515       C  0.90746048  0.39861773  0.97509283    -0.26640
C1516       C  0.93150031  0.39851604  0.99790528    -0.14720
C1517       C  0.92502176  0.38033715  0.52104886     0.35910
C1518       C  0.89610183  0.36155297  0.51994539    -0.26090
C1519       C  0.87286404  0.36085073  0.99670535    -0.15330
C1520       C  0.87815396  0.37998654  0.97412880     0.37000
N1521       N  0.85600181  0.38006190  0.94924268    -0.89580
H1522       H  0.91257589  0.41229725  0.95722652     0.18110
H1523       H  0.89159953  0.34740512  0.53755258     0.18100
N1524       N  0.94687664  0.38053171  0.54609252    -0.88610
H1525       H  0.84194282  0.39898527  0.94865543     0.35480
H1526       H  0.83674914  0.36412059  0.94953552     0.40580
H1527       H  0.96580280  0.39672767  0.54588056     0.40200
H1528       H  0.96112782  0.36170458  0.54694931     0.35090
C1529       C  0.09817826  0.35592891  0.51489693    -0.26640
C1530       C  0.12712898  0.36151884  0.99662109    -0.14720
C1531       C  0.12614198  0.38564791  0.97932600     0.35910
C1532       C  0.09501184  0.40265624  0.97953056    -0.26090
C1533       C  0.06546554  0.39636744  0.99719122    -0.15330
C1534       C  0.06789864  0.37331725  0.51579427     0.37000
N1535       N  0.03983923  0.36762187  0.53593637    -0.89580
H1536       H  0.09910566  0.33788896  0.52873522     0.18110
H1537       H  0.09342919  0.42044238  0.96536152     0.18100
N1538       N  0.15579982  0.39207638  0.96072883    -0.88610
H1539       H  0.03008357  0.34744100  0.53239908     0.35480
H1540       H  0.05126954  0.36797986  0.55606052     0.40580
H1541       H  0.17773829  0.39797259  0.97322941     0.40200
H1542       H  0.14967756  0.40946431  0.94818476     0.35090
C1543       C  0.02092957  0.53251671  0.51692576    -0.26640
C1544       C  0.99941229  0.54790870  0.99806805    -0.14720
C1545       C  0.97852967  0.53353840  0.97797466     0.35910
C1546       C  0.97910675  0.50422355  0.97737216    -0.26090
C1547       C  0.00047730  0.48883292  0.99636294    -0.15330
C1548       C  0.02148079  0.50324366  0.51636092     0.37000
N1549       N  0.04248944  0.48823851  0.53676855    -0.89580
H1550       H  0.03687955  0.54328037  0.53263002     0.18110
H1551       H  0.96306170  0.49343420  0.96175012     0.18100
N1552       N  0.95743175  0.54861686  0.95768702    -0.88610
H1553       H  0.06949055  0.49451369  0.53464042     0.35480
H1554       H  0.03359076  0.49396775  0.55682752     0.40580
H1555       H  0.96629251  0.54298950  0.93758761     0.40200
H1556       H  0.93045591  0.54228204  0.95982452     0.35090
C1557       C  0.12716676  0.65345561  0.51571998    -0.26640
C1558       C  0.12619900  0.67623235  0.99691110    -0.14720
C1559       C  0.09588119  0.67975885  0.97919148     0.35910
C1560       C  0.06694409  0.66092202  0.98126454    -0.26090
C1561       C  0.06670654  0.63917520  0.00129827    -0.15330
C1562       C  0.09756991  0.63518902  0.51860199     0.37000
N1563       N  0.09922674  0.61424087  0.54039694    -0.89580
H1564       H  0.15034723  0.65071353  0.52943080     0.18110
H1565       H  0.04372572  0.66372427  0.96759976     0.18100
N1566       N  0.09471392  0.70211650  0.95879223    -0.88610
H1567       H  0.11846409  0.59944838  0.53434526     0.35480
H1568       H  0.07464454  0.60387023  0.54315228     0.40580
H1569       H  0.09006079  0.72065528  0.96968219     0.40200
H1570       H  0.07253197  0.69973435  0.94536377     0.35090
C1571       C  0.93430634  0.66414135  0.98462900    -0.26640
C1572       C  0.93313589  0.64015889  0.00181168    -0.14720
C1573       C  0.90118633  0.63424445  0.01706089     0.35910
C1574       C  0.87176561  0.65289646  0.01566681    -0.26090
C1575       C  0.87401892  0.67779779  0.99984517    -0.15330
C1576       C  0.90565690  0.68323117  0.98384485     0.37000
N1577       N  0.90859062  0.70788293  0.96646065    -0.89580
H1578       H  0.95829800  0.66843273  0.97213975     0.18110
H1579       H  0.84760636  0.64840198  0.02788220     0.18100
N1580       N  0.89892427  0.60999403  0.53478463    -0.88610
H1581       H  0.93109102  0.70659225  0.45313264     0.35160
H1582       H  0.91383159  0.72470337  0.47976439     0.40580
H1583       H  0.87692573  0.59800838  0.02807742     0.40200
H1584       H  0.89362167  0.61653624  0.05534237     0.35090
loop_ 
_geom_bond_atom_site_label_1 
_geom_bond_atom_site_label_2 
_geom_bond_distance 
_geom_bond_site_symmetry_2 
_ccdc_geom_bond_type 
C1            C2   1.411   1_556  A
C1            C6   1.408   1_656  A
C1         C1544   1.486       .  S
C2          C795   1.406       .  A
C2            H7   1.082   1_554  S
C3            C4   1.402       .  A
C3          C794   1.406       .  A
C3          C780   1.491       .  S
C4            C5   1.399   1_655  A
C4            H8   1.084   1_655  S
C5          C798   1.402       .  A
C5          C769   1.486       .  S
C6          C797   1.402       .  A
C6            H9   1.084   1_554  S
C10          C11   1.410   1_655  A
C10          C15   1.408       .  A
C10         C755   1.486   1_655  S
C11          C12   1.405       .  A
C11          H16   1.083       .  S
C12          C13   1.400   1_455  A
C12         C741   1.487       .  S
C13          C14   1.397       .  A
C13          H17   1.084       .  S
C14          C15   1.401       .  A
C14         C724   1.476       .  S
C15          H18   1.084       .  S
Zr19         O20   2.438       .  S
Zr19         O21   2.412       .  S
Zr19         O25   2.419       .  S
Zr19        O814   2.423       .  S
Zr19         O28   2.378       .  S
Zr19         O30   2.394       .  S
Zr19        O819   2.375       .  S
Zr19        O821   2.396       .  S
O20          H76   0.990       .  S
O20         H876   0.990       .  S
O21          C41   1.280       .  A
O22        Zr811   2.423   1_554  S
O22          C43   1.283       .  A
O23         Zr33   2.442       .  S
O23          C42   1.287       .  A
O24         Zr32   2.435       .  S
O24          C43   1.284       .  A
O25          C42   1.284       .  A
O26         Zr34   2.443       .  S
O26          C41   1.285       .  A
O27         Zr32   2.394       .  S
O27        Zr811   2.375   1_554  S
O27        Zr826   2.375       .  S
O28         Zr33   2.391       .  S
O28         Zr34   2.372       .  S
O28          H63   0.966       .  S
O29         Zr32   2.398       .  S
O29        Zr811   2.396   1_554  S
O29        Zr841   2.390   1_554  S
O29          H66   0.966       .  S
O30         Zr33   2.397       .  S
O30         Zr49   2.394       .  S
Zr31         O56   2.445       .  S
Zr31         O50   2.436       .  S
Zr31         O58   2.422       .  S
Zr31        O838   2.424       .  S
Zr31         O37   2.399       .  S
Zr31         O40   2.376       .  S
Zr31        O830   2.402       .  S
Zr31        O831   2.375       .  S
Zr32         O51   2.436       .  S
Zr32         O44   2.435       .  S
Zr32         O45   2.439       .  S
Zr32         O38   2.397       .  S
Zr32         O39   2.386       .  S
Zr33         O35   2.434       .  S
Zr33         O57   2.437       .  S
Zr33         O59   2.448       .  S
Zr33         O37   2.394       .  S
Zr33         O40   2.390       .  S
Zr34         O60   2.435       .  S
Zr34         O61   2.435       .  S
Zr34        O828   2.436       .  S
Zr34         O37   2.403       .  S
Zr34        O819   2.375       .  S
Zr34        O830   2.402       .  S
O35          H72   0.990       .  S
O36        Zr826   2.436       .  S
O36          H67   0.990       .  S
O36          H81   0.990       .  S
O38        Zr823   2.402   1_554  S
O38        Zr826   2.402       .  S
O38          H64   0.966       .  S
O39        Zr823   2.375   1_554  S
O39        Zr841   2.375   1_554  S
O40         Zr49   2.383       .  S
O40          H65   0.966       .  S
C41         C783   1.484       .  S
C42         C696   1.483       .  S
C43         C682   1.471       .  S
O44          H80   0.990       .  S
O45          C47   1.285       .  A
O46        Zr823   2.424   1_554  S
O46          C47   1.284       .  A
C47         C668   1.483       .  S
O48         Zr49   2.439       .  S
O48         H869   0.990       .  S
Zr49         O53   2.439       .  S
Zr49        O844   2.437       .  S
Zr49         O54   2.419       .  S
Zr49        O821   2.390       .  S
Zr49        O831   2.375       .  S
O50          C55   1.285       .  A
O51          H68   0.990       .  S
O51          H83   0.990       .  S
O52        Zr841   2.437   1_554  S
O52          H69   0.990       .  S
O53          H73   0.990       .  S
O53          H82   0.990       .  S
O54          C55   1.280       .  A
C55         C654   1.469       .  S
O56          H75   0.990       .  S
O56         H871   0.990       .  S
O57          H71   0.990       .  S
O57          H78   0.990       .  S
O58          C62   1.284       .  A
O59          C62   1.287       .  A
O60          H70   0.990       .  S
O61         H866   0.990       .  S
C62         C713   1.487       .  S
H74         O853   0.990   1_556  S
H77         O840   0.990       .  S
H79         O848   0.990   1_554  S
H84         O812   0.990   1_554  S
C85          C86   1.409       .  A
C85          C90   1.409       .  A
C85         C626   1.484       .  S
C86          C87   1.403       .  A
C86          H91   1.083       .  S
C87          C88   1.403       .  A
C87         C710   1.492       .  S
C88          C89   1.405       .  A
C88          H92   1.084       .  S
C89          C90   1.403       .  A
C89         C640   1.494       .  S
C90          H93   1.083       .  S
Zr94         O95   2.439       .  S
Zr94         O96   2.425       .  S
Zr94         O97   2.426       .  S
Zr94        O892   2.420       .  S
Zr94        O102   2.376       .  S
Zr94        O104   2.400       .  S
Zr94        O895   2.376       .  S
Zr94        O897   2.397       .  S
O95         H151   0.990       .  S
O95         H159   0.990       .  S
O96         C116   1.285       .  A
O97         C118   1.283       .  A
O98        Zr108   2.438       .  S
O98         C117   1.286       .  A
O99        Zr107   2.451       .  S
O99         C118   1.287       .  A
O100       Zr886   2.420   1_554  S
O100        C117   1.284       .  A
O101       Zr109   2.431       .  S
O101        C116   1.282       .  A
O102       Zr107   2.397       .  S
O102       Zr109   2.381       .  S
O103       Zr108   2.388       .  S
O103       Zr886   2.376   1_554  S
O103       Zr901   2.371   1_554  S
O103        H138   0.966       .  S
O104       Zr107   2.400       .  S
O104       Zr124   2.397       .  S
O104        H141   0.966       .  S
O105       Zr108   2.396       .  S
O105       Zr886   2.397   1_554  S
O105       Zr916   2.399   1_554  S
Zr106       O131   2.440       .  S
Zr106       O125   2.418       .  S
Zr106       O121   2.413       .  S
Zr106       O925   2.417       .  S
Zr106       O113   2.398       .  S
Zr106       O114   2.375       .  S
Zr106       O904   2.394       .  S
Zr106       O907   2.374       .  S
Zr107       O126   2.436       .  S
Zr107       O119   2.435       .  S
Zr107       O120   2.453       .  S
Zr107       O113   2.399       .  S
Zr107       O114   2.389       .  S
Zr108       O110   2.434       .  S
Zr108       O132   2.436       .  S
Zr108       O134   2.442       .  S
Zr108       O112   2.393       .  S
Zr108       O115   2.386       .  S
Zr109       O136   2.436       .  S
Zr109       O111   2.436       .  S
Zr109       O927   2.435       .  S
Zr109       O113   2.398       .  S
Zr109       O895   2.371       .  S
Zr109       O904   2.399       .  S
O110        H147   0.990       .  S
O111        H142   0.990       .  S
O111        H156   0.990       .  S
O112       Zr898   2.394   1_554  S
O112       Zr901   2.399   1_554  S
O113        H139   0.966       .  S
O114       Zr124   2.374       .  S
O115       Zr898   2.374   1_554  S
O115       Zr916   2.373   1_554  S
O115        H140   0.966       .  S
C116        C570   1.484       .  S
C117        C587   1.477       .  S
C118        C643   1.491       .  S
O119        H155   0.990       .  S
O120        C122   1.288       .  A
O121        C122   1.283       .  A
C122        C612   1.484       .  S
O123       Zr124   2.439       .  S
O123        H152   0.990       .  S
Zr124       O127   2.437       .  S
Zr124       O920   2.439       .  S
Zr124       O129   2.436       .  S
Zr124       O897   2.399       .  S
Zr124       O907   2.373       .  S
O125        C130   1.282       .  A
O126        H143   0.990       .  S
O126        H158   0.990       .  S
O127        H144   0.990       .  S
O128       Zr916   2.439   1_554  S
O128        H148   0.990       .  S
O128        H157   0.990       .  S
O129        C130   1.284       .  A
C130        C766   1.479       .  S
O131        H154   0.990       .  S
O131        H942   0.990       .  S
O132        H146   0.990       .  S
O132        H153   0.990       .  S
O133       Zr898   2.417   1_554  S
O133        C137   1.282       .  A
O134        C137   1.287       .  A
O135       Zr901   2.435   1_554  S
O135        H145   0.990       .  S
O136        H149   0.990       .  S
C137        C598   1.480       .  S
H150        O923   0.990   1_554  S
C160        C161   1.408       .  A
C160        C165   1.410   1_655  A
C160        C556   1.487       .  S
C161        C162   1.402       .  A
C161        H166   1.083       .  S
C162        C163   1.401   1_655  A
C162        C699   1.490       .  S
C163        C164   1.404       .  A
C163        H167   1.084       .  S
C164        C165   1.405       .  A
C164        C615   1.492       .  S
C165        H168   1.082       .  S
C169        C170   1.408       .  A
C169        C174   1.408       .  A
C169        C629   1.486       .  S
C170        C171   1.404       .  A
C170        H175   1.084       .  S
C171        C172   1.402       .  A
C171        C671   1.490       .  S
C172        C173   1.401       .  A
C172        H176   1.084       .  S
C173        C174   1.402       .  A
C173        C584   1.485       .  S
C174        H177   1.081       .  S
C178        C179   1.408       .  A
C178        C183   1.408   1_655  A
C178        C559   1.485       .  S
C179        C180   1.400       .  A
C179        H184   1.084       .  S
C180        C181   1.399       .  A
C180        C685   1.480       .  S
C181        C182   1.403   1_655  A
C181        H185   1.084       .  S
C182        C183   1.405       .  A
C182        C601   1.488       .  S
C183        H186   1.083       .  S
Zr187       O188   2.436       .  S
Zr187       O189   2.415       .  S
Zr187       O190   2.418       .  S
Zr187       O985   2.420       .  S
Zr187       O195   2.376       .  S
Zr187       O197   2.398       .  S
Zr187       O988   2.376       .  S
Zr187       O990   2.392       .  S
O188        H244   0.990       .  S
O188        H252   0.990       .  S
O189        C209   1.280       .  A
O190        C211   1.283       .  A
O191       Zr201   2.437       .  S
O191        C210   1.285       .  A
O192       Zr200   2.448       .  S
O192        C211   1.287       .  A
O193       Zr979   2.420   1_554  S
O193        C210   1.284       .  A
O194       Zr202   2.431       .  S
O194        C209   1.283       .  A
O195       Zr200   2.393       .  S
O195       Zr202   2.374       .  S
O196       Zr201   2.393       .  S
O196       Zr979   2.376   1_554  S
O196       Zr994   2.373   1_554  S
O196        H231   0.966       .  S
O197       Zr200   2.402       .  S
O197       Zr217   2.392       .  S
O197        H234   0.966       .  S
O198       Zr201   2.392       .  S
O198       Zr979   2.392   1_554  S
O198      Zr1009   2.394   1_554  S
Zr199       O224   2.441       .  S
Zr199       O218   2.430       .  S
Zr199       O214   2.422       .  S
Zr199      O1018   2.424       .  S
Zr199       O206   2.401       .  S
Zr199       O207   2.376       .  S
Zr199       O997   2.396       .  S
Zr199      O1000   2.377       .  S
Zr200       O219   2.436       .  S
Zr200       O212   2.435       .  S
Zr200       O213   2.450       .  S
Zr200       O206   2.399       .  S
Zr200       O207   2.388       .  S
Zr201       O203   2.434       .  S
Zr201       O225   2.436       .  S
Zr201       O227   2.437       .  S
Zr201       O205   2.392       .  S
Zr201       O208   2.388       .  S
Zr202       O204   2.436       .  S
Zr202      O1020   2.435       .  S
Zr202      O1021   2.435       .  S
Zr202       O206   2.398       .  S
Zr202       O988   2.373       .  S
Zr202       O997   2.397       .  S
O203        H240   0.990       .  S
O204        H235   0.990       .  S
O204        H249   0.990       .  S
O205       Zr991   2.396   1_554  S
O205       Zr994   2.397   1_554  S
O206        H232   0.966       .  S
O207       Zr217   2.375       .  S
O208       Zr991   2.377   1_554  S
O208      Zr1009   2.380   1_554  S
O208        H233   0.966       .  S
C209        C486   1.477       .  S
C210        C500   1.479       .  S
C211        C542   1.483       .  S
O212        H248   0.990       .  S
O213        C215   1.288       .  A
O214        C215   1.284       .  A
C215        C528   1.487       .  S
O216       Zr217   2.439       .  S
O216        H245   0.990       .  S
Zr217       O220   2.437       .  S
Zr217      O1013   2.439       .  S
Zr217       O222   2.421       .  S
Zr217       O990   2.394       .  S
Zr217      O1000   2.380       .  S
O218        C223   1.284       .  A
O219        H236   0.990       .  S
O219        H251   0.990       .  S
O220        H237   0.990       .  S
O221      Zr1009   2.439   1_554  S
O221        H241   0.990       .  S
O221        H250   0.990       .  S
O222        C223   1.281       .  A
C223        C727   1.470       .  S
O224        H247   0.989       .  S
O224       H1035   0.990       .  S
O225        H239   0.990       .  S
O225        H246   0.990       .  S
O226       Zr991   2.424   1_554  S
O226        C230   1.284       .  A
O227        C230   1.285       .  A
O228       Zr994   2.435   1_554  S
O228        H238   0.990       .  S
O229       Zr994   2.435   1_554  S
O229       H1034   0.989   1_554  S
C230        C517   1.478       .  S
H242       O1021   0.989       .  S
H243       O1016   0.990   1_554  S
C253        C254   1.409       .  A
C253        C258   1.408       .  A
C253        C461   1.483       .  S
C254        C255   1.404       .  A
C254        H259   1.082       .  S
C255        C256   1.404       .  A
C255        C545   1.490       .  S
C256        C257   1.402       .  A
C256        H260   1.084       .  S
C257        C258   1.401       .  A
C257        C475   1.490       .  S
C258        H261   1.083       .  S
Zr262       O263   2.436       .  S
Zr262       O264   2.421       .  S
Zr262       O268   2.417       .  S
Zr262      O1057   2.422       .  S
Zr262       O271   2.378       .  S
Zr262       O273   2.397       .  S
Zr262      O1062   2.375       .  S
Zr262      O1064   2.397       .  S
O263        H319   0.990       .  S
O263       H1119   0.990       .  S
O264        C284   1.282       .  A
O265      Zr1054   2.422   1_554  S
O265        C286   1.282       .  A
O266       Zr276   2.446       .  S
O266        C285   1.287       .  A
O267       Zr275   2.438       .  S
O267        C286   1.285       .  A
O268        C285   1.283       .  A
O269       Zr277   2.428       .  S
O269        C284   1.283       .  A
O270       Zr275   2.390       .  S
O270      Zr1054   2.375   1_554  S
O270      Zr1069   2.377   1_554  S
O271       Zr276   2.393       .  S
O271       Zr277   2.374       .  S
O271        H306   0.966       .  S
O272       Zr275   2.399       .  S
O272      Zr1054   2.397   1_554  S
O272      Zr1084   2.396   1_554  S
O272        H309   0.966       .  S
O273       Zr276   2.393       .  S
O273       Zr292   2.395       .  S
Zr274       O299   2.440       .  S
Zr274       O293   2.422       .  S
Zr274       O301   2.423       .  S
Zr274      O1081   2.425       .  S
Zr274       O280   2.398       .  S
Zr274       O283   2.378       .  S
Zr274      O1073   2.399       .  S
Zr274      O1074   2.372       .  S
Zr275       O294   2.436       .  S
Zr275       O287   2.435       .  S
Zr275       O288   2.435       .  S
Zr275       O281   2.396       .  S
Zr275       O282   2.387       .  S
Zr276       O278   2.434       .  S
Zr276       O300   2.436       .  S
Zr276       O302   2.445       .  S
Zr276       O280   2.395       .  S
Zr276       O283   2.389       .  S
Zr277       O303   2.435       .  S
Zr277       O304   2.436       .  S
Zr277      O1071   2.436       .  S
Zr277       O280   2.396       .  S
Zr277      O1062   2.377       .  S
Zr277      O1073   2.400       .  S
O278        H315   0.990       .  S
O279      Zr1069   2.436   1_554  S
O279        H310   0.990       .  S
O279        H324   0.990       .  S
O281      Zr1066   2.399   1_554  S
O281      Zr1069   2.400   1_554  S
O281        H307   0.966       .  S
O282      Zr1066   2.372   1_554  S
O282      Zr1084   2.374   1_554  S
O283       Zr292   2.376       .  S
O283        H308   0.966       .  S
C284        C405   1.476       .  S
C285        C472   1.483       .  S
C286        C416   1.477       .  S
O287        H323   0.990       .  S
O288        C290   1.285       .  A
O289      Zr1066   2.425   1_554  S
O289        C290   1.284       .  A
C290        C444   1.479       .  S
O291       Zr292   2.439       .  S
O291       H1112   0.990       .  S
Zr292       O296   2.439       .  S
Zr292      O1087   2.437       .  S
Zr292       O297   2.431       .  S
Zr292      O1064   2.396       .  S
Zr292      O1074   2.374       .  S
O293        C298   1.284       .  A
O294        H311   0.990       .  S
O294        H326   0.990       .  S
O295      Zr1084   2.437   1_554  S
O295        H312   0.990       .  S
O296        H316   0.990       .  S
O296        H325   0.990       .  S
O297        C298   1.283       .  A
C298        C738   1.477       .  S
O299        H318   0.990       .  S
O299       H1114   0.990       .  S
O300        H314   0.990       .  S
O300        H321   0.990       .  S
O301        C305   1.285       .  A
O302        C305   1.287       .  A
O303        H313   0.990       .  S
O304       H1109   0.990       .  S
C305        C430   1.482       .  S
H317       O1096   0.990   1_554  S
H320       O1083   0.990       .  S
H322       O1091   0.990   1_554  S
H327       O1055   0.990   1_554  S
C328        C329   1.407       .  A
C328        C333   1.407   1_655  A
C328        C391   1.479       .  S
C329        C330   1.405       .  A
C329        H334   1.083       .  S
C330        C331   1.405   1_655  A
C330        C531   1.493       .  S
C331        C332   1.403       .  A
C331        H335   1.084       .  S
C332        C333   1.403       .  A
C332        C433   1.491       .  S
C333        H336   1.083       .  S
C337        C338   1.408       .  A
C337        C342   1.407       .  A
C337        C458   1.483       .  S
C338        C339   1.404       .  A
C338        H343   1.083       .  S
C339        C340   1.402       .  A
C339        C503   1.488       .  S
C340        C341   1.401       .  A
C340        H344   1.084       .  S
C341        C342   1.400       .  A
C341        C419   1.485       .  S
C342        H345   1.081       .  S
C346        C347   1.407   1_455  A
C346        C351   1.406       .  A
C346        C388   1.483       .  S
C347        C348   1.404       .  A
C347        H352   1.084       .  S
C348        C349   1.403   1_655  A
C348        C514   1.485       .  S
C349        C350   1.403       .  A
C349        H353   1.083   1_455  S
C350        C351   1.403       .  A
C350        C447   1.487       .  S
C351        H354   1.084       .  S
C355        C356   1.407       .  A
C355        C360   1.411       .  A
C355        C374   1.487       .  S
C356        C357   1.396       .  A
C356        H361   1.084       .  S
C357        C358   1.397       .  A
C357        C657   1.474       .  S
C358        C359   1.404       .  A
C358        H362   1.083       .  S
C359        C360   1.407       .  A
C359        C573   1.494       .  S
C360        H363   1.082       .  S
C364        C365   1.406       .  A
C364        C369   1.406       .  A
C364        C377   1.481       .  S
C365        C366   1.402       .  A
C365        H370   1.083       .  S
C366        C367   1.402       .  A
C366        C489   1.486       .  S
C367        C368   1.403       .  A
C367        H371   1.084       .  S
C368        C369   1.404       .  A
C368        C402   1.487       .  S
C369        H372   1.083       .  S
C373        C374   1.405   1_545  A
C373        C378   1.400       .  A
C373        H380   1.084   1_545  S
C374        C375   1.412   1_565  A
C375        C376   1.404       .  A
C375        N382   1.432   1_545  S
C376        C377   1.404       .  A
C376        H381   1.084       .  S
C377        C378   1.408       .  A
C378        N379   1.433       .  S
N379       H1175   1.046       .  S
N379       H1176   1.045       .  S
N382        H385   1.045       .  S
N382        H386   1.046       .  S
H383       N1171   1.046       .  S
H384       N1171   1.045       .  S
C387        C388   1.403       .  A
C387        C392   1.399       .  A
C387        H394   1.084       .  S
C388        C389   1.419   1_455  A
C389        C390   1.402       .  A
C389        N396   1.438       .  S
C390        C391   1.403       .  A
C390        H395   1.084       .  S
C391        C392   1.416   1_655  A
C392        N393   1.439       .  S
N393        H397   1.045       .  S
N393        H398   1.043       .  S
N396        H399   1.043       .  S
N396        H400   1.045       .  S
C401        C406   1.402       .  A
C401       C1194   1.406       .  A
C401        H408   1.084       .  S
C402        C403   1.414       .  A
C402       C1193   1.406       .  A
C403        C404   1.407       .  A
C403        N410   1.438       .  S
C404        C405   1.403       .  A
C404        H409   1.084       .  S
C405       C1198   1.410       .  A
C406       C1197   1.410       .  A
C406        N407   1.439       .  S
N407        H411   1.046       .  S
N407        H412   1.046       .  S
N410        H413   1.046       .  S
N410        H414   1.046       .  S
C415        C416   1.404       .  A
C415        C420   1.410       .  A
C415        H422   1.084       .  S
C416        C417   1.408       .  A
C417        C418   1.396       .  A
C417        N424   1.432       .  S
C418        C419   1.403       .  A
C418        H423   1.084       .  S
C419        C420   1.416       .  A
C420        N421   1.437       .  S
N421        H425   1.046       .  S
N421        H426   1.044       .  S
N424        H427   1.046       .  S
N424        H428   1.045       .  S
C429        C430   1.406       .  A
C429        C434   1.412       .  A
C429        H436   1.084       .  S
C430        C431   1.411       .  A
C431        C432   1.400       .  A
C431        N438   1.438       .  S
C432        C433   1.405       .  A
C432        H437   1.084       .  S
C433        C434   1.415       .  A
C434        N435   1.437       .  S
N435        H439   1.046       .  S
N435        H440   1.045       .  S
N438        H441   1.046       .  S
N438        H442   1.046       .  S
C443        C444   1.402       .  A
C443        C448   1.397       .  A
C443        H450   1.082       .  S
C444        C445   1.411       .  A
C445        C446   1.408       .  A
C445        N452   1.438       .  S
C446        C447   1.406       .  A
C446        H451   1.084       .  S
C447        C448   1.419       .  A
C448        N449   1.438       .  S
N449        H453   1.046       .  S
N449        H454   1.043       .  S
N452        H455   1.046       .  S
N452        H456   1.046       .  S
C457        C458   1.405       .  A
C457        C462   1.405       .  A
C457        H464   1.084       .  S
C458        C459   1.410       .  A
C459        C460   1.398       .  A
C459        N466   1.433       .  S
C460        C461   1.403       .  A
C460        H465   1.084       .  S
C461        C462   1.411       .  A
C462        N463   1.432       .  S
N463        H467   1.046       .  S
N463        H468   1.045       .  S
N466        H469   1.045       .  S
N466        H470   1.046       .  S
C471        C472   1.406       .  A
C471        C476   1.412       .  A
C471        H478   1.084       .  S
C472        C473   1.410       .  A
C473        C474   1.395       .  A
C473        N480   1.432       .  S
C474        C475   1.403       .  A
C474        H479   1.084       .  S
C475        C476   1.416       .  A
C476        N477   1.437       .  S
N477        H481   1.046       .  S
N477        H482   1.045       .  S
N480        H483   1.045       .  S
N480        H484   1.046       .  S
C485        C490   1.403       .  A
C485       C1278   1.403   1_554  A
C485        H492   1.084       .  S
C486        C487   1.414       .  A
C486       C1277   1.403       .  A
C487        C488   1.403       .  A
C487        N494   1.439       .  S
C488        C489   1.405       .  A
C488        H493   1.084       .  S
C489       C1282   1.411       .  A
C490       C1281   1.411   1_554  A
C490        N491   1.432       .  S
N491        H495   1.045       .  S
N491        H496   1.046       .  S
N494        H497   1.045       .  S
N494        H498   1.046       .  S
C499        C500   1.401       .  A
C499        C504   1.397       .  A
C499        H506   1.084       .  S
C500        C501   1.413       .  A
C501        C502   1.411       .  A
C501        N508   1.437       .  S
C502        C503   1.407       .  A
C502        H507   1.083       .  S
C503        C504   1.412       .  A
C504        N505   1.433       .  S
N505        H509   1.046       .  S
N505        H510   1.045       .  S
N508        H511   1.046       .  S
N508        H512   1.046       .  S
C513        C514   1.406       .  A
C513        C518   1.409       .  A
C513        H520   1.083       .  S
C514        C515   1.409       .  A
C515        C516   1.399       .  A
C515        N522   1.433       .  S
C516        C517   1.403       .  A
C516        H521   1.084       .  S
C517        C518   1.412       .  A
C518        N519   1.437       .  S
N519        H523   1.046       .  S
N519        H524   1.045       .  S
N522        H525   1.046       .  S
N522        H526   1.046       .  S
C527        C528   1.407       .  A
C527        C532   1.410       .  A
C527        H534   1.084       .  S
C528        C529   1.414       .  A
C529        C530   1.399       .  A
C529        N536   1.436       .  S
C530        C531   1.403       .  A
C530        H535   1.084       .  S
C531        C532   1.412       .  A
C532        N533   1.431       .  S
N533        H537   1.045       .  S
N533        H538   1.046       .  S
N536        H539   1.045       .  S
N536        H540   1.046       .  S
C541        C542   1.407       .  A
C541        C546   1.411       .  A
C541        H548   1.084       .  S
C542        C543   1.411       .  A
C543        C544   1.395       .  A
C543        N550   1.432       .  S
C544        C545   1.403       .  A
C544        H549   1.084       .  S
C545        C546   1.413       .  A
C546        N547   1.431       .  S
N547        H551   1.045       .  S
N547        H552   1.046       .  S
N550        H553   1.046       .  S
N550        H554   1.045       .  S
C555        C556   1.405   1_455  A
C555        C560   1.406       .  A
C555        H562   1.083       .  S
C556        C557   1.414       .  A
C557        C558   1.403       .  A
C557        N564   1.438       .  S
C558        C559   1.403       .  A
C558        H563   1.084       .  S
C559        C560   1.412   1_655  A
C560        N561   1.438       .  S
N561        H565   1.046       .  S
N561        H566   1.045       .  S
N564        H567   1.045       .  S
N564        H568   1.046       .  S
C569        C570   1.396       .  A
C569        C574   1.392       .  A
C569        H576   1.075       .  S
C570        C571   1.414       .  A
C571        C572   1.414       .  A
C571       N1370   1.437       .  S
C572        C573   1.410       .  A
C572       H1369   1.083       .  S
C573        C574   1.412       .  A
C574        N575   1.432       .  S
N575        H579   1.045       .  S
N575        H580   1.046       .  S
H577       C1364   1.083       .  S
N578       C1363   1.437       .  S
N578        H581   1.045       .  S
N578        H582   1.046       .  S
C583        C584   1.404       .  A
C583        C588   1.397       .  A
C583        H590   1.084       .  S
C584        C585   1.414       .  A
C585        C586   1.411       .  A
C585        N592   1.437       .  S
C586        C587   1.405       .  A
C586        H591   1.084       .  S
C587        C588   1.407       .  A
C588        N589   1.433       .  S
N589        H593   1.045       .  S
N589        H594   1.046       .  S
N592        H595   1.044       .  S
N592        H596   1.046       .  S
C597        C598   1.405       .  A
C597        C602   1.405       .  A
C597        H604   1.084       .  S
C598        C599   1.415       .  A
C599        C600   1.402       .  A
C599        N606   1.439       .  S
C600        C601   1.405       .  A
C600        H605   1.084       .  S
C601        C602   1.410       .  A
C602        N603   1.432       .  S
N603        H607   1.045       .  S
N603        H608   1.046       .  S
N606        H609   1.045       .  S
N606        H610   1.046       .  S
C611        C612   1.407       .  A
C611        C616   1.412       .  A
C611        H618   1.084       .  S
C612        C613   1.410       .  A
C613        C614   1.395       .  A
C613        N620   1.432       .  S
C614        C615   1.403       .  A
C614        H619   1.084       .  S
C615        C616   1.413       .  A
C616        N617   1.431       .  S
N617        H621   1.045       .  S
N617        H622   1.046       .  S
N620        H623   1.046       .  S
N620        H624   1.045       .  S
C625        C626   1.403       .  A
C625        C630   1.403       .  A
C625        H632   1.084       .  S
C626        C627   1.410       .  A
C627        C628   1.403       .  A
C627        N634   1.432       .  S
C628        C629   1.405       .  A
C628        H633   1.084       .  S
C629        C630   1.411       .  A
C630        N631   1.432       .  S
N631        H635   1.046       .  S
N631        H636   1.045       .  S
N634        H637   1.046       .  S
N634        H638   1.046       .  S
C639        C640   1.401       .  A
C639        C644   1.399       .  A
C639        H646   1.084       .  S
C640        C641   1.412       .  A
C641        C642   1.412       .  A
C641        N648   1.431       .  S
C642        C643   1.408       .  A
C642        H647   1.084       .  S
C643        C644   1.415       .  A
C644        N645   1.434       .  S
N645        H649   1.046       .  S
N645        H650   1.045       .  S
N648        H651   1.046       .  S
N648        H652   1.045       .  S
C653        C654   1.397       .  A
C653        C658   1.400       .  A
C653        H660   1.079       .  S
C654       C1447   1.410       .  A
C655        C656   1.408       .  A
C655       C1446   1.410   1_554  A
C655        N662   1.437       .  S
C656       C1449   1.403   1_554  A
C656        H661   1.084       .  S
C657        C658   1.410       .  A
C657       C1448   1.403       .  A
C658        N659   1.438       .  S
N659        H663   1.046       .  S
N659        H664   1.043       .  S
N662        H665   1.046       .  S
N662        H666   1.046       .  S
C667        C668   1.402       .  A
C667        C672   1.397       .  A
C667        H674   1.084       .  S
C668        C669   1.415       .  A
C669        C670   1.412       .  A
C669        N676   1.437       .  S
C670        C671   1.407       .  A
C670        H675   1.083       .  S
C671        C672   1.412       .  A
C672        N673   1.433       .  S
N673        H677   1.046       .  S
N673        H678   1.045       .  S
N676        H679   1.045       .  S
N676        H680   1.046       .  S
C681        C682   1.404       .  A
C681        C686   1.409       .  A
C681        H688   1.084       .  S
C682        C683   1.408       .  A
C683        C684   1.400       .  A
C683        N690   1.439       .  S
C684        C685   1.403       .  A
C684        H689   1.084       .  S
C685        C686   1.411       .  A
C686        N687   1.437       .  S
N687        H691   1.046       .  S
N687        H692   1.046       .  S
N690        H693   1.046       .  S
N690        H694   1.046       .  S
C695        C696   1.406       .  A
C695        C700   1.410       .  A
C695        H702   1.084       .  S
C696        C697   1.412       .  A
C697        C698   1.400       .  A
C697        N704   1.438       .  S
C698        C699   1.404       .  A
C698        H703   1.084       .  S
C699        C700   1.414       .  A
C700        N701   1.437       .  S
N701        H705   1.046       .  S
N701        H706   1.045       .  S
N704        H707   1.046       .  S
N704        H708   1.046       .  S
C709        C710   1.403       .  A
C709        C714   1.398       .  A
C709        H716   1.084       .  S
C710        C711   1.415       .  A
C711        C712   1.415       .  A
C711        N718   1.437       .  S
C712        C713   1.407       .  A
C712        H717   1.083       .  S
C713        C714   1.412       .  A
C714        N715   1.436       .  S
N715        H719   1.046       .  S
N715        H720   1.044       .  S
N718        H721   1.045       .  S
N718        H722   1.046       .  S
C723        C724   1.402       .  A
C723        C728   1.403       .  A
C723        H730   1.084       .  S
C724       C1517   1.417       .  A
C725        C726   1.397       .  A
C725       C1516   1.417   1_554  A
C725        N732   1.438       .  S
C726       C1519   1.400   1_554  A
C726        H731   1.085       .  S
C727        C728   1.418       .  A
C727       C1518   1.400       .  A
C728        N729   1.438       .  S
N729        H733   1.045       .  S
N729        H734   1.043       .  S
N732        H735   1.043       .  S
N732        H736   1.045       .  S
C737        C742   1.396       .  A
C737       C1530   1.400   1_554  A
C737        H744   1.082       .  S
C738        C739   1.413       .  A
C738       C1529   1.400       .  A
C739        C740   1.410       .  A
C739        N746   1.437       .  S
C740        C741   1.406       .  A
C740        H745   1.083       .  S
C741       C1534   1.412       .  A
C742       C1533   1.412   1_554  A
C742        N743   1.433       .  S
N743        H747   1.046       .  S
N743        H748   1.046       .  S
N746        H749   1.045       .  S
N746        H750   1.046       .  S
C751        C756   1.403       .  A
C751       C1544   1.404   1_454  A
C751        H758   1.084       .  S
C752        C753   1.410       .  A
C752       C1543   1.404   1_655  A
C752        C793   1.486       .  S
C753        C754   1.405       .  A
C753        N760   1.432       .  S
C754        C755   1.405   1_655  A
C754        H759   1.084       .  S
C755       C1548   1.411       .  A
C756       C1547   1.411   1_554  A
C756        N757   1.432       .  S
N757        H761   1.046       .  S
N757        H762   1.045       .  S
N760        H763   1.046       .  S
N760        H764   1.046       .  S
C765        C770   1.405       .  A
C765       C1558   1.405   1_554  A
C765        H772   1.084       .  S
C766        C767   1.412       .  A
C766       C1557   1.405       .  A
C767        C768   1.400       .  A
C767        N774   1.439       .  S
C768        C769   1.405       .  A
C768        H773   1.084       .  S
C769       C1562   1.419       .  A
C770       C1561   1.419       .  A
C770        N771   1.437       .  S
N771        H775   1.045       .  S
N771        H776   1.042       .  S
N774        H777   1.045       .  S
N774        H778   1.046       .  S
C779        C780   1.405       .  A
C779        C784   1.400       .  A
C779        H786   1.084       .  S
C780        C781   1.411       .  A
C781        C782   1.409       .  A
C781       N1580   1.431       .  S
C782        C783   1.407       .  A
C782        H787   1.084       .  S
C783        C784   1.415       .  A
C784        N785   1.439       .  S
N785       H1581   1.046       .  S
N785       H1582   1.045       .  S
N788       C1573   1.431       .  S
N788       H1583   1.046       .  S
N788       H1584   1.045       .  S
H789       N1577   1.046       .  S
H790       N1577   1.045       .  S
H791       N1580   1.046       .  S
H792       N1580   1.045       .  S
C793        C794   1.411       .  A
C793        C798   1.408   1_655  A
C794        H799   1.082       .  S
C795        C796   1.402       .  A
C795       C1572   1.491       .  S
C796        C797   1.399   1_655  A
C796        H800   1.084   1_655  S
C797       C1561   1.486       .  S
C798        H801   1.084       .  S
C802        C803   1.410   1_655  A
C802        C807   1.408       .  A
C802       C1547   1.486   1_655  S
C803        C804   1.405       .  A
C803        H808   1.083       .  S
C804        C805   1.400   1_455  A
C804       C1533   1.487       .  S
C805        C806   1.397       .  A
C805        H809   1.084       .  S
C806        C807   1.401       .  A
C806       C1516   1.476       .  S
C807        H810   1.084       .  S
Zr811       O812   2.438       .  S
Zr811       O813   2.412       .  S
Zr811       O817   2.419       .  S
Zr811       O820   2.378       .  S
Zr811       O822   2.394       .  S
O812        H868   0.990   1_556  S
O813        C833   1.280   1_556  A
O814        C835   1.283       .  A
O815       Zr825   2.442       .  S
O815        C834   1.287       .  A
O816       Zr824   2.435       .  S
O816        C835   1.284       .  A
O817        C834   1.284       .  A
O818       Zr826   2.443       .  S
O818        C833   1.285       .  A
O819       Zr824   2.394       .  S
O820       Zr825   2.391       .  S
O820       Zr826   2.372   1_556  S
O820        H855   0.966       .  S
O821       Zr824   2.398       .  S
O821        H858   0.966       .  S
O822       Zr825   2.397       .  S
O822       Zr841   2.394       .  S
Zr823       O848   2.445       .  S
Zr823       O842   2.436       .  S
Zr823       O850   2.422       .  S
Zr823       O829   2.399       .  S
Zr823       O832   2.376       .  S
Zr824       O843   2.436       .  S
Zr824       O836   2.435       .  S
Zr824       O837   2.439       .  S
Zr824       O830   2.397       .  S
Zr824       O831   2.386       .  S
Zr825       O827   2.434       .  S
Zr825       O849   2.437       .  S
Zr825       O851   2.448       .  S
Zr825       O829   2.394       .  S
Zr825       O832   2.390       .  S
Zr826       O852   2.435   1_554  S
Zr826       O853   2.435       .  S
Zr826       O829   2.403   1_554  S
O827        H864   0.990       .  S
O828        H859   0.990       .  S
O828        H873   0.990       .  S
O830        H856   0.966       .  S
O832       Zr841   2.383       .  S
O832        H857   0.966       .  S
C833       C1575   1.484   1_554  S
C834       C1488   1.483       .  S
C835       C1474   1.471       .  S
O836        H872   0.990       .  S
O837        C839   1.285       .  A
O838        C839   1.284       .  A
C839       C1460   1.483       .  S
O840       Zr841   2.439       .  S
Zr841       O845   2.439       .  S
Zr841       O846   2.419       .  S
O842        C847   1.285       .  A
O843        H860   0.990       .  S
O843        H875   0.990       .  S
O844        H861   0.990       .  S
O845        H865   0.990       .  S
O845        H874   0.990       .  S
O846        C847   1.280       .  A
C847       C1446   1.469       .  S
O848        H867   0.990       .  S
O849        H863   0.990       .  S
O849        H870   0.990       .  S
O850        C854   1.284       .  A
O851        C854   1.287       .  A
O852        H862   0.990       .  S
C854       C1505   1.487       .  S
C877        C878   1.409       .  A
C877        C882   1.409       .  A
C877       C1418   1.484       .  S
C878        C879   1.403       .  A
C878        H883   1.083       .  S
C879        C880   1.403       .  A
C879       C1502   1.492       .  S
C880        C881   1.405       .  A
C880        H884   1.084       .  S
C881        C882   1.403       .  A
C881       C1432   1.494       .  S
C882        H885   1.083       .  S
Zr886       O887   2.439       .  S
Zr886       O888   2.425       .  S
Zr886       O889   2.426       .  S
Zr886       O894   2.376       .  S
Zr886       O896   2.400       .  S
O887        H943   0.990       .  S
O887        H951   0.990       .  S
O888        C908   1.285       .  A
O889        C910   1.283       .  A
O890       Zr900   2.438       .  S
O890        C909   1.286       .  A
O891       Zr899   2.451       .  S
O891        C910   1.287       .  A
O892        C909   1.284       .  A
O893       Zr901   2.431       .  S
O893        C908   1.282       .  A
O894       Zr899   2.397       .  S
O894       Zr901   2.381       .  S
O895       Zr900   2.388       .  S
O895        H930   0.966       .  S
O896       Zr899   2.400       .  S
O896       Zr916   2.397       .  S
O896        H933   0.966       .  S
O897       Zr900   2.396       .  S
Zr898       O923   2.440       .  S
Zr898       O917   2.418       .  S
Zr898       O913   2.413       .  S
Zr898       O905   2.398       .  S
Zr898       O906   2.375       .  S
Zr899       O918   2.436       .  S
Zr899       O911   2.435       .  S
Zr899       O912   2.453       .  S
Zr899       O905   2.399       .  S
Zr899       O906   2.389       .  S
Zr900       O902   2.434       .  S
Zr900       O924   2.436       .  S
Zr900       O926   2.442       .  S
Zr900       O904   2.393       .  S
Zr900       O907   2.386       .  S
Zr901       O928   2.436       .  S
Zr901       O903   2.436       .  S
Zr901       O905   2.398       .  S
O902        H939   0.990       .  S
O903        H934   0.990       .  S
O903        H948   0.990       .  S
O905        H931   0.966       .  S
O906       Zr916   2.374       .  S
O907        H932   0.966       .  S
C908       C1362   1.484       .  S
C909       C1379   1.477       .  S
C910       C1435   1.491       .  S
O911        H947   0.990       .  S
O912        C914   1.288       .  A
O913        C914   1.283       .  A
C914       C1404   1.484       .  S
O915       Zr916   2.439       .  S
O915        H944   0.990       .  S
Zr916       O919   2.437       .  S
Zr916       O921   2.436       .  S
O917        C922   1.282       .  A
O918        H935   0.990       .  S
O918        H950   0.990       .  S
O919        H936   0.990       .  S
O920        H940   0.990       .  S
O920        H949   0.990       .  S
O921        C922   1.284       .  A
C922       C1558   1.479       .  S
O923        H946   0.990       .  S
O924        H938   0.990       .  S
O924        H945   0.990       .  S
O925        C929   1.282       .  A
O926        C929   1.287       .  A
O927        H937   0.990       .  S
O928        H941   0.990   1_556  S
C929       C1390   1.480       .  S
C952        C953   1.408       .  A
C952        C957   1.410   1_655  A
C952       C1348   1.487       .  S
C953        C954   1.402       .  A
C953        H958   1.083       .  S
C954        C955   1.401   1_655  A
C954       C1491   1.490       .  S
C955        C956   1.404       .  A
C955        H959   1.084       .  S
C956        C957   1.405       .  A
C956       C1407   1.492       .  S
C957        H960   1.082       .  S
C961        C962   1.408       .  A
C961        C966   1.408       .  A
C961       C1421   1.486       .  S
C962        C963   1.404       .  A
C962        H967   1.084       .  S
C963        C964   1.402       .  A
C963       C1463   1.490       .  S
C964        C965   1.401       .  A
C964        H968   1.084       .  S
C965        C966   1.402       .  A
C965       C1376   1.485       .  S
C966        H969   1.081       .  S
C970        C971   1.408       .  A
C970        C975   1.408   1_655  A
C970       C1351   1.485       .  S
C971        C972   1.400       .  A
C971        H976   1.084       .  S
C972        C973   1.399       .  A
C972       C1477   1.480       .  S
C973        C974   1.403   1_655  A
C973        H977   1.084       .  S
C974        C975   1.405       .  A
C974       C1393   1.488       .  S
C975        H978   1.083       .  S
Zr979       O980   2.436   1_556  S
Zr979       O981   2.415       .  S
Zr979       O982   2.418       .  S
Zr979       O987   2.376       .  S
Zr979       O989   2.398       .  S
O980       H1036   0.990   1_554  S
O980       H1044   0.990   1_554  S
O981       C1001   1.280       .  A
O982       C1003   1.283       .  A
O983       Zr993   2.437       .  S
O983       C1002   1.285       .  A
O984       Zr992   2.448       .  S
O984       C1003   1.287       .  A
O985       C1002   1.284       .  A
O986       Zr994   2.431       .  S
O986       C1001   1.283       .  A
O987       Zr992   2.393       .  S
O987       Zr994   2.374       .  S
O988       Zr993   2.393       .  S
O988       H1023   0.966       .  S
O989       Zr992   2.402       .  S
O989      Zr1009   2.392       .  S
O989       H1026   0.966       .  S
O990       Zr993   2.392       .  S
Zr991      O1016   2.441       .  S
Zr991      O1010   2.430       .  S
Zr991      O1006   2.422       .  S
Zr991       O998   2.401       .  S
Zr991       O999   2.376       .  S
Zr992      O1011   2.436       .  S
Zr992      O1004   2.435       .  S
Zr992      O1005   2.450       .  S
Zr992       O998   2.399       .  S
Zr992       O999   2.388       .  S
Zr993       O995   2.434       .  S
Zr993      O1017   2.436       .  S
Zr993      O1019   2.437       .  S
Zr993       O997   2.392       .  S
Zr993      O1000   2.388       .  S
Zr994       O996   2.436       .  S
Zr994       O998   2.398       .  S
O995       H1032   0.990       .  S
O996       H1027   0.990       .  S
O996       H1041   0.990       .  S
O998       H1024   0.966       .  S
O999      Zr1009   2.375       .  S
O1000      H1025   0.966       .  S
C1001      C1278   1.477       .  S
C1002      C1292   1.479       .  S
C1003      C1334   1.483       .  S
O1004      H1040   0.990       .  S
O1005      C1007   1.288       .  A
O1006      C1007   1.284       .  A
C1007      C1320   1.487       .  S
O1008     Zr1009   2.439       .  S
O1008      H1037   0.990       .  S
Zr1009     O1012   2.437       .  S
Zr1009     O1014   2.421       .  S
O1010      C1015   1.284       .  A
O1011      H1028   0.990       .  S
O1011      H1043   0.990       .  S
O1012      H1029   0.990       .  S
O1013      H1033   0.990       .  S
O1013      H1042   0.990       .  S
O1014      C1015   1.281       .  A
C1015      C1519   1.470       .  S
O1016      H1039   0.989       .  S
O1017      H1031   0.990       .  S
O1017      H1038   0.990       .  S
O1018      C1022   1.284       .  A
O1019      C1022   1.285       .  A
O1020      H1030   0.990       .  S
C1022      C1309   1.478       .  S
C1045      C1046   1.409       .  A
C1045      C1050   1.408       .  A
C1045      C1253   1.483       .  S
C1046      C1047   1.404       .  A
C1046      H1051   1.082       .  S
C1047      C1048   1.404       .  A
C1047      C1337   1.490       .  S
C1048      C1049   1.402       .  A
C1048      H1052   1.084       .  S
C1049      C1050   1.401       .  A
C1049      C1267   1.490       .  S
C1050      H1053   1.083       .  S
Zr1054     O1055   2.436       .  S
Zr1054     O1056   2.421   1_556  S
Zr1054     O1060   2.417       .  S
Zr1054     O1063   2.378       .  S
Zr1054     O1065   2.397       .  S
O1055      H1111   0.990   1_556  S
O1056      C1076   1.282       .  A
O1057      C1078   1.282       .  A
O1058     Zr1068   2.446       .  S
O1058      C1077   1.287       .  A
O1059     Zr1067   2.438       .  S
O1059      C1078   1.285       .  A
O1060      C1077   1.283       .  A
O1061     Zr1069   2.428   1_554  S
O1061      C1076   1.283       .  A
O1062     Zr1067   2.390       .  S
O1063     Zr1068   2.393       .  S
O1063     Zr1069   2.374       .  S
O1063      H1098   0.966       .  S
O1064     Zr1067   2.399       .  S
O1064      H1101   0.966       .  S
O1065     Zr1068   2.393       .  S
O1065     Zr1084   2.395       .  S
Zr1066     O1091   2.440       .  S
Zr1066     O1085   2.422       .  S
Zr1066     O1093   2.423       .  S
Zr1066     O1072   2.398       .  S
Zr1066     O1075   2.378       .  S
Zr1067     O1086   2.436       .  S
Zr1067     O1079   2.435       .  S
Zr1067     O1080   2.435       .  S
Zr1067     O1073   2.396       .  S
Zr1067     O1074   2.387       .  S
Zr1068     O1070   2.434       .  S
Zr1068     O1092   2.436       .  S
Zr1068     O1094   2.445       .  S
Zr1068     O1072   2.395       .  S
Zr1068     O1075   2.389       .  S
Zr1069     O1095   2.435       .  S
Zr1069     O1096   2.436       .  S
Zr1069     O1072   2.396       .  S
O1070      H1107   0.990       .  S
O1071      H1102   0.990       .  S
O1071      H1116   0.990       .  S
O1073      H1099   0.966       .  S
O1075     Zr1084   2.376       .  S
O1075      H1100   0.966       .  S
C1076      C1197   1.476       .  S
C1077      C1264   1.483       .  S
C1078      C1208   1.477       .  S
O1079      H1115   0.990       .  S
O1080      C1082   1.285       .  A
O1081      C1082   1.284       .  A
C1082      C1236   1.479       .  S
O1083     Zr1084   2.439       .  S
Zr1084     O1088   2.439       .  S
Zr1084     O1089   2.431       .  S
O1085      C1090   1.284       .  A
O1086      H1103   0.990       .  S
O1086      H1118   0.990       .  S
O1087      H1104   0.990       .  S
O1088      H1108   0.990       .  S
O1088      H1117   0.990       .  S
O1089      C1090   1.283       .  A
C1090      C1530   1.477       .  S
O1091      H1110   0.990       .  S
O1092      H1106   0.990       .  S
O1092      H1113   0.990       .  S
O1093      C1097   1.285       .  A
O1094      C1097   1.287       .  A
O1095      H1105   0.990       .  S
C1097      C1222   1.482       .  S
C1120      C1121   1.407       .  A
C1120      C1125   1.407   1_655  A
C1120      C1183   1.479       .  S
C1121      C1122   1.405       .  A
C1121      H1126   1.083       .  S
C1122      C1123   1.405   1_655  A
C1122      C1323   1.493       .  S
C1123      C1124   1.403       .  A
C1123      H1127   1.084       .  S
C1124      C1125   1.403       .  A
C1124      C1225   1.491       .  S
C1125      H1128   1.083       .  S
C1129      C1130   1.408       .  A
C1129      C1134   1.407       .  A
C1129      C1250   1.483       .  S
C1130      C1131   1.404       .  A
C1130      H1135   1.083       .  S
C1131      C1132   1.402       .  A
C1131      C1295   1.488       .  S
C1132      C1133   1.401       .  A
C1132      H1136   1.084       .  S
C1133      C1134   1.400       .  A
C1133      C1211   1.485       .  S
C1134      H1137   1.081       .  S
C1138      C1139   1.407   1_455  A
C1138      C1143   1.406       .  A
C1138      C1180   1.483       .  S
C1139      C1140   1.404       .  A
C1139      H1144   1.084       .  S
C1140      C1141   1.403   1_655  A
C1140      C1306   1.485       .  S
C1141      C1142   1.403       .  A
C1141      H1145   1.083   1_455  S
C1142      C1143   1.403       .  A
C1142      C1239   1.487       .  S
C1143      H1146   1.084       .  S
C1147      C1148   1.407       .  A
C1147      C1152   1.411       .  A
C1147      C1166   1.487       .  S
C1148      C1149   1.396       .  A
C1148      H1153   1.084       .  S
C1149      C1150   1.397       .  A
C1149      C1449   1.474       .  S
C1150      C1151   1.404       .  A
C1150      H1154   1.083   1_556  S
C1151      C1152   1.407       .  A
C1151      C1365   1.494       .  S
C1152      H1155   1.082       .  S
C1156      C1157   1.406       .  A
C1156      C1161   1.406       .  A
C1156      C1169   1.481       .  S
C1157      C1158   1.402       .  A
C1157      H1162   1.083       .  S
C1158      C1159   1.402       .  A
C1158      C1281   1.486       .  S
C1159      C1160   1.403       .  A
C1159      H1163   1.084       .  S
C1160      C1161   1.404       .  A
C1160      C1194   1.487   1_556  S
C1161      H1164   1.083   1_556  S
C1165      C1166   1.405   1_544  A
C1165      C1170   1.400       .  A
C1165      H1172   1.084   1_545  S
C1166      C1167   1.412   1_565  A
C1167      C1168   1.404       .  A
C1167      N1174   1.432   1_545  S
C1168      C1169   1.404       .  A
C1168      H1173   1.084       .  S
C1169      C1170   1.408   1_556  A
C1170      N1171   1.433       .  S
N1174      H1177   1.045       .  S
N1174      H1178   1.046       .  S
C1179      C1180   1.403       .  A
C1179      C1184   1.399       .  A
C1179      H1186   1.084       .  S
C1180      C1181   1.419   1_455  A
C1181      C1182   1.402       .  A
C1181      N1188   1.438       .  S
C1182      C1183   1.403       .  A
C1182      H1187   1.084       .  S
C1183      C1184   1.416   1_655  A
C1184      N1185   1.439       .  S
N1185      H1189   1.045       .  S
N1185      H1190   1.043       .  S
N1188      H1191   1.043       .  S
N1188      H1192   1.045       .  S
C1193      C1198   1.402       .  A
C1193      H1200   1.084       .  S
C1194      C1195   1.414   1_554  A
C1195      C1196   1.407       .  A
C1195      N1202   1.438       .  S
C1196      C1197   1.403   1_556  A
C1196      H1201   1.084       .  S
C1198      N1199   1.439       .  S
N1199      H1203   1.046       .  S
N1199      H1204   1.046       .  S
N1202      H1205   1.046       .  S
N1202      H1206   1.046       .  S
C1207      C1208   1.404       .  A
C1207      C1212   1.410       .  A
C1207      H1214   1.084       .  S
C1208      C1209   1.408       .  A
C1209      C1210   1.396       .  A
C1209      N1216   1.432       .  S
C1210      C1211   1.403       .  A
C1210      H1215   1.084       .  S
C1211      C1212   1.416       .  A
C1212      N1213   1.437       .  S
N1213      H1217   1.046       .  S
N1213      H1218   1.044       .  S
N1216      H1219   1.046       .  S
N1216      H1220   1.045       .  S
C1221      C1222   1.406       .  A
C1221      C1226   1.412       .  A
C1221      H1228   1.084       .  S
C1222      C1223   1.411       .  A
C1223      C1224   1.400       .  A
C1223      N1230   1.438       .  S
C1224      C1225   1.405       .  A
C1224      H1229   1.084       .  S
C1225      C1226   1.415       .  A
C1226      N1227   1.437       .  S
N1227      H1231   1.046       .  S
N1227      H1232   1.045       .  S
N1230      H1233   1.046       .  S
N1230      H1234   1.046       .  S
C1235      C1236   1.402       .  A
C1235      C1240   1.397       .  A
C1235      H1242   1.082       .  S
C1236      C1237   1.411       .  A
C1237      C1238   1.408       .  A
C1237      N1244   1.438       .  S
C1238      C1239   1.406       .  A
C1238      H1243   1.084       .  S
C1239      C1240   1.419       .  A
C1240      N1241   1.438       .  S
N1241      H1245   1.046       .  S
N1241      H1246   1.043       .  S
N1244      H1247   1.046       .  S
N1244      H1248   1.046       .  S
C1249      C1250   1.405       .  A
C1249      C1254   1.405       .  A
C1249      H1256   1.084       .  S
C1250      C1251   1.410       .  A
C1251      C1252   1.398       .  A
C1251      N1258   1.433       .  S
C1252      C1253   1.403       .  A
C1252      H1257   1.084       .  S
C1253      C1254   1.411       .  A
C1254      N1255   1.432       .  S
N1255      H1259   1.046       .  S
N1255      H1260   1.045       .  S
N1258      H1261   1.045       .  S
N1258      H1262   1.046       .  S
C1263      C1264   1.406       .  A
C1263      C1268   1.412       .  A
C1263      H1270   1.084       .  S
C1264      C1265   1.410       .  A
C1265      C1266   1.395       .  A
C1265      N1272   1.432       .  S
C1266      C1267   1.403       .  A
C1266      H1271   1.084       .  S
C1267      C1268   1.416       .  A
C1268      N1269   1.437       .  S
N1269      H1273   1.046       .  S
N1269      H1274   1.045       .  S
N1272      H1275   1.045       .  S
N1272      H1276   1.046       .  S
C1277      C1282   1.403       .  A
C1277      H1284   1.084       .  S
C1278      C1279   1.414       .  A
C1279      C1280   1.403       .  A
C1279      N1286   1.439       .  S
C1280      C1281   1.405       .  A
C1280      H1285   1.084       .  S
C1282      N1283   1.432       .  S
N1283      H1287   1.045       .  S
N1283      H1288   1.046       .  S
N1286      H1289   1.045       .  S
N1286      H1290   1.046       .  S
C1291      C1292   1.401       .  A
C1291      C1296   1.397       .  A
C1291      H1298   1.084       .  S
C1292      C1293   1.413       .  A
C1293      C1294   1.411       .  A
C1293      N1300   1.437       .  S
C1294      C1295   1.407       .  A
C1294      H1299   1.083       .  S
C1295      C1296   1.412       .  A
C1296      N1297   1.433       .  S
N1297      H1301   1.046       .  S
N1297      H1302   1.045       .  S
N1300      H1303   1.046       .  S
N1300      H1304   1.046       .  S
C1305      C1306   1.406       .  A
C1305      C1310   1.409       .  A
C1305      H1312   1.083       .  S
C1306      C1307   1.409       .  A
C1307      C1308   1.399       .  A
C1307      N1314   1.433       .  S
C1308      C1309   1.403       .  A
C1308      H1313   1.084       .  S
C1309      C1310   1.412       .  A
C1310      N1311   1.437       .  S
N1311      H1315   1.046       .  S
N1311      H1316   1.045       .  S
N1314      H1317   1.046       .  S
N1314      H1318   1.046       .  S
C1319      C1320   1.407       .  A
C1319      C1324   1.410       .  A
C1319      H1326   1.084       .  S
C1320      C1321   1.414       .  A
C1321      C1322   1.399       .  A
C1321      N1328   1.436       .  S
C1322      C1323   1.403       .  A
C1322      H1327   1.084       .  S
C1323      C1324   1.412       .  A
C1324      N1325   1.431       .  S
N1325      H1329   1.045       .  S
N1325      H1330   1.046       .  S
N1328      H1331   1.045       .  S
N1328      H1332   1.046       .  S
C1333      C1334   1.407       .  A
C1333      C1338   1.411       .  A
C1333      H1340   1.084       .  S
C1334      C1335   1.411       .  A
C1335      C1336   1.395       .  A
C1335      N1342   1.432       .  S
C1336      C1337   1.403       .  A
C1336      H1341   1.084       .  S
C1337      C1338   1.413       .  A
C1338      N1339   1.431       .  S
N1339      H1343   1.045       .  S
N1339      H1344   1.046       .  S
N1342      H1345   1.046       .  S
N1342      H1346   1.045       .  S
C1347      C1348   1.405   1_455  A
C1347      C1352   1.406       .  A
C1347      H1354   1.083       .  S
C1348      C1349   1.414       .  A
C1349      C1350   1.403       .  A
C1349      N1356   1.438       .  S
C1350      C1351   1.403       .  A
C1350      H1355   1.084       .  S
C1351      C1352   1.412   1_655  A
C1352      N1353   1.438       .  S
N1353      H1357   1.046       .  S
N1353      H1358   1.045       .  S
N1356      H1359   1.045       .  S
N1356      H1360   1.046       .  S
C1361      C1362   1.396       .  A
C1361      C1366   1.392       .  A
C1361      H1368   1.075       .  S
C1362      C1363   1.414   1_556  A
C1363      C1364   1.414       .  A
C1364      C1365   1.410   1_554  A
C1365      C1366   1.412       .  A
C1366      N1367   1.432       .  S
N1367      H1371   1.045       .  S
N1367      H1372   1.046       .  S
N1370      H1373   1.045       .  S
N1370      H1374   1.046       .  S
C1375      C1376   1.404       .  A
C1375      C1380   1.397       .  A
C1375      H1382   1.084       .  S
C1376      C1377   1.414       .  A
C1377      C1378   1.411       .  A
C1377      N1384   1.437       .  S
C1378      C1379   1.405       .  A
C1378      H1383   1.084       .  S
C1379      C1380   1.407       .  A
C1380      N1381   1.433       .  S
N1381      H1385   1.045       .  S
N1381      H1386   1.046       .  S
N1384      H1387   1.044       .  S
N1384      H1388   1.046       .  S
C1389      C1390   1.405       .  A
C1389      C1394   1.405       .  A
C1389      H1396   1.084       .  S
C1390      C1391   1.415       .  A
C1391      C1392   1.402       .  A
C1391      N1398   1.439       .  S
C1392      C1393   1.405       .  A
C1392      H1397   1.084       .  S
C1393      C1394   1.410       .  A
C1394      N1395   1.432       .  S
N1395      H1399   1.045       .  S
N1395      H1400   1.046       .  S
N1398      H1401   1.045       .  S
N1398      H1402   1.046       .  S
C1403      C1404   1.407       .  A
C1403      C1408   1.412       .  A
C1403      H1410   1.084       .  S
C1404      C1405   1.410       .  A
C1405      C1406   1.395       .  A
C1405      N1412   1.432       .  S
C1406      C1407   1.403       .  A
C1406      H1411   1.084       .  S
C1407      C1408   1.413       .  A
C1408      N1409   1.431       .  S
N1409      H1413   1.045       .  S
N1409      H1414   1.046       .  S
N1412      H1415   1.046       .  S
N1412      H1416   1.045       .  S
C1417      C1418   1.403       .  A
C1417      C1422   1.403       .  A
C1417      H1424   1.084       .  S
C1418      C1419   1.410       .  A
C1419      C1420   1.403       .  A
C1419      N1426   1.432       .  S
C1420      C1421   1.405       .  A
C1420      H1425   1.084       .  S
C1421      C1422   1.411       .  A
C1422      N1423   1.432       .  S
N1423      H1427   1.046       .  S
N1423      H1428   1.045       .  S
N1426      H1429   1.046       .  S
N1426      H1430   1.046       .  S
C1431      C1432   1.401       .  A
C1431      C1436   1.399       .  A
C1431      H1438   1.084       .  S
C1432      C1433   1.412       .  A
C1433      C1434   1.412       .  A
C1433      N1440   1.431       .  S
C1434      C1435   1.408       .  A
C1434      H1439   1.084       .  S
C1435      C1436   1.415       .  A
C1436      N1437   1.434       .  S
N1437      H1441   1.046       .  S
N1437      H1442   1.045       .  S
N1440      H1443   1.046       .  S
N1440      H1444   1.045       .  S
C1445      C1446   1.397       .  A
C1445      C1450   1.400       .  A
C1445      H1452   1.079       .  S
C1447      C1448   1.408       .  A
C1447      N1454   1.437       .  S
C1448      H1453   1.084       .  S
C1449      C1450   1.410       .  A
C1450      N1451   1.438       .  S
N1451      H1455   1.046       .  S
N1451      H1456   1.043       .  S
N1454      H1457   1.046       .  S
N1454      H1458   1.046       .  S
C1459      C1460   1.402       .  A
C1459      C1464   1.397       .  A
C1459      H1466   1.084       .  S
C1460      C1461   1.415       .  A
C1461      C1462   1.412       .  A
C1461      N1468   1.437       .  S
C1462      C1463   1.407       .  A
C1462      H1467   1.083       .  S
C1463      C1464   1.412       .  A
C1464      N1465   1.433       .  S
N1465      H1469   1.046       .  S
N1465      H1470   1.045       .  S
N1468      H1471   1.045       .  S
N1468      H1472   1.046       .  S
C1473      C1474   1.404       .  A
C1473      C1478   1.409       .  A
C1473      H1480   1.084       .  S
C1474      C1475   1.408       .  A
C1475      C1476   1.400       .  A
C1475      N1482   1.439       .  S
C1476      C1477   1.403       .  A
C1476      H1481   1.084       .  S
C1477      C1478   1.411       .  A
C1478      N1479   1.437       .  S
N1479      H1483   1.046       .  S
N1479      H1484   1.046       .  S
N1482      H1485   1.046       .  S
N1482      H1486   1.046       .  S
C1487      C1488   1.406       .  A
C1487      C1492   1.410       .  A
C1487      H1494   1.084       .  S
C1488      C1489   1.412       .  A
C1489      C1490   1.400       .  A
C1489      N1496   1.438       .  S
C1490      C1491   1.404       .  A
C1490      H1495   1.084       .  S
C1491      C1492   1.414       .  A
C1492      N1493   1.437       .  S
N1493      H1497   1.046       .  S
N1493      H1498   1.045       .  S
N1496      H1499   1.046       .  S
N1496      H1500   1.046       .  S
C1501      C1502   1.403       .  A
C1501      C1506   1.398       .  A
C1501      H1508   1.084       .  S
C1502      C1503   1.415       .  A
C1503      C1504   1.415       .  A
C1503      N1510   1.437       .  S
C1504      C1505   1.407       .  A
C1504      H1509   1.083       .  S
C1505      C1506   1.412       .  A
C1506      N1507   1.436       .  S
N1507      H1511   1.046       .  S
N1507      H1512   1.044       .  S
N1510      H1513   1.045       .  S
N1510      H1514   1.046       .  S
C1515      C1516   1.402       .  A
C1515      C1520   1.403       .  A
C1515      H1522   1.084       .  S
C1517      C1518   1.397       .  A
C1517      N1524   1.438       .  S
C1518      H1523   1.085       .  S
C1519      C1520   1.418       .  A
C1520      N1521   1.438       .  S
N1521      H1525   1.045       .  S
N1521      H1526   1.043       .  S
N1524      H1527   1.043       .  S
N1524      H1528   1.045       .  S
C1529      C1534   1.396       .  A
C1529      H1536   1.082       .  S
C1530      C1531   1.413       .  A
C1531      C1532   1.410       .  A
C1531      N1538   1.437       .  S
C1532      C1533   1.406       .  A
C1532      H1537   1.083       .  S
C1534      N1535   1.433       .  S
N1535      H1539   1.046       .  S
N1535      H1540   1.046       .  S
N1538      H1541   1.045       .  S
N1538      H1542   1.046       .  S
C1543      C1548   1.403       .  A
C1543      H1550   1.084       .  S
C1544      C1545   1.410       .  A
C1545      C1546   1.405       .  A
C1545      N1552   1.432       .  S
C1546      C1547   1.405   1_655  A
C1546      H1551   1.084       .  S
C1548      N1549   1.432       .  S
N1549      H1553   1.046       .  S
N1549      H1554   1.045       .  S
N1552      H1555   1.046       .  S
N1552      H1556   1.046       .  S
C1557      C1562   1.405       .  A
C1557      H1564   1.084       .  S
C1558      C1559   1.412       .  A
C1559      C1560   1.400       .  A
C1559      N1566   1.439       .  S
C1560      C1561   1.405   1_556  A
C1560      H1565   1.084       .  S
C1562      N1563   1.437       .  S
N1563      H1567   1.045       .  S
N1563      H1568   1.042       .  S
N1566      H1569   1.045       .  S
N1566      H1570   1.046       .  S
C1571      C1572   1.405   1_556  A
C1571      C1576   1.400       .  A
C1571      H1578   1.084       .  S
C1572      C1573   1.411       .  A
C1573      C1574   1.409       .  A
C1574      C1575   1.407   1_554  A
C1574      H1579   1.084       .  S
C1575      C1576   1.415       .  A
C1576      N1577   1.439       .  S
