geometry optimzed in LAMMPS
_audit_creation_date              2020-11-30 
_audit_creation_method            'lammps2cif' 
_symmetry_space_group_name_H-M    'P1' 
_symmetry_Int_Tables_number       1 
_symmetry_cell_setting            triclinic 
loop_ 
_symmetry_equiv_pos_as_xyz 
  x,y,z 
_cell_length_a                    29.892317179258587 
_cell_length_b                    29.21761172078528 
_cell_length_c                    46.363424914882586 
_cell_angle_alpha                 87.43413861418361 
_cell_angle_beta                  91.00017977816569 
_cell_angle_gamma                 88.57885987470438 
loop_ 
_atom_site_label 
_atom_site_type_symbol 
_atom_site_fract_x 
_atom_site_fract_y 
_atom_site_fract_z 
_atom_site_charge 
O1          O  0.34345517  0.05175380  0.19600997    -0.75090
O2          O  0.28042919  0.07621840  0.21508314    -0.54000
C3          C  0.32351048  0.07072427  0.21635005     0.78640
O4          O  0.27975998  0.26341798  0.13508457    -0.59690
O5          O  0.31623378  0.24770913  0.09345879    -0.52720
C6          C  0.30068159  0.27512814  0.11204449     0.70650
O7          O  0.21355708  0.17745354  0.20856089    -0.74250
O8          O  0.20388470  0.10014794  0.21471360    -0.54810
C9          C  0.19935679  0.14102448  0.22252005     0.76660
O10         O  0.41124787  0.12348728  0.12289777    -0.59390
O11         O  0.38611035  0.17054477  0.08520062    -0.52510
C12         C  0.41755292  0.14994910  0.10072600     0.73250
Zr13       Zr  0.35110446  0.09835545  0.15263068     2.54710
O14         O  0.40040168  0.14105252  0.18328926    -0.79960
O15         O  0.40672420  0.03623642  0.15084424    -0.93370
Zr16       Zr  0.25740580  0.19692369  0.16366617     2.64680
O17         O  0.30945532  0.22598816  0.19895903    -0.98330
O18         O  0.20688021  0.26190706  0.17090999    -0.80390
O19         O  0.28717585  0.12519559  0.17722540    -0.83750
O20         O  0.32280499  0.17246727  0.13804781    -2.18460
O21         O  0.28839841  0.05815457  0.04951459    -0.67140
O22         O  0.31322276  0.13075289  0.04091261    -0.51700
C23         C  0.30298491  0.09032046  0.03296483     0.71630
O24         O  0.13702408  0.08014928  0.12231977    -0.60050
O25         O  0.14478861  0.07459749  0.17027321    -0.52020
C26         C  0.11981671  0.07970627  0.14719319     0.73440
O27         O  0.18397188  0.19822504  0.06571423    -0.71440
O28         O  0.25635114  0.21540170  0.05582324    -0.50120
C29         C  0.21372762  0.22098118  0.05216085     0.74820
O30         O  0.21207674  0.00613287  0.12704626    -0.66770
O31         O  0.22402017  0.99182714  0.17349231    -0.53970
C32         C  0.22123452  0.97756130  0.14805890     0.73200
Zr33       Zr  0.27071834  0.04091278  0.09866145     2.77540
O34         O  0.24331424  0.98078233  0.06863046    -0.97520
O35         O  0.32815026  0.98050190  0.10480264    -0.78340
Zr36       Zr  0.18192375  0.14203597  0.10522105     2.70070
O37         O  0.12985150  0.12535911  0.06634262    -0.79590
O38         O  0.12660633  0.19665552  0.12234114    -0.98670
Zr39       Zr  0.22869471  0.07286370  0.17207745     2.21500
Zr40       Zr  0.30379305  0.16666960  0.08788166     2.11130
O41         O  0.24435995  0.11490669  0.08016367    -2.47360
O42         O  0.20721657  0.06831191  0.12233767    -0.79380
O43         O  0.33076296  0.09196079  0.10359854    -0.71580
O44         O  0.19887795  0.14637537  0.15501151    -2.32530
O45         O  0.29375479  0.04421918  0.14748224    -2.28740
O46         O  0.24001773  0.19269077  0.11369144    -0.73340
H47         H  0.34622133  0.19432538  0.14020962     0.78660
H48         H  0.17222239  0.15534870  0.16501012     0.79750
H49         H  0.23403599  0.11541427  0.06031396     0.81970
H50         H  0.30371373  0.01434057  0.15514248     0.79580
H51         H  0.17750238  0.24823303  0.17482096     0.42620
H52         H  0.14437399  0.22296912  0.12814473     0.41590
H53         H  0.14357717  0.09850104  0.05727280     0.41270
H54         H  0.22287251  0.99673188  0.05422162     0.39200
H55         H  0.35415863  0.99272483  0.09430329     0.42330
H56         H  0.38980246  0.00779461  0.15397155     0.37110
H57         H  0.38212787  0.16783549  0.18885420     0.43230
H58         H  0.32948309  0.24591113  0.18750067     0.39650
H59         H  0.26935012  0.97063751  0.05741032     0.44570
H60         H  0.42509323  0.03847865  0.16868269     0.43290
H61         H  0.29114118  0.24747072  0.21005876     0.43420
H62         H  0.11019735  0.20827740  0.10466239     0.43780
O63         O  0.36113053  0.59965066  0.19126349    -0.75090
O64         O  0.40010844  0.56564161  0.15553485    -0.54000
C65         C  0.39719147  0.58236927  0.18095911     0.78640
O66         O  0.14788569  0.59702131  0.11529509    -0.59690
O67         O  0.14682901  0.67299896  0.10173893    -0.52720
C68         C  0.12783916  0.63600710  0.10976055     0.70650
O69         O  0.26126875  0.49007302  0.11076062    -0.74250
O70         O  0.33698144  0.49207424  0.11613835    -0.54810
C71         C  0.30029680  0.47064265  0.11254198     0.76660
O72         O  0.23738694  0.68751374  0.18993837    -0.59390
O73         O  0.17893623  0.69892708  0.15926028    -0.52510
C74         C  0.19504319  0.69140249  0.18517251     0.73250
Zr75       Zr  0.28739581  0.62715876  0.17354095     2.54710
O76         O  0.24920025  0.56607208  0.19978882    -0.79960
O77         O  0.30295091  0.65112389  0.22236990    -0.93370
Zr78       Zr  0.22322899  0.56388553  0.11321959     2.64680
O79         O  0.18859625  0.51660131  0.15079750    -0.98330
O80         O  0.18050734  0.52384566  0.07739592    -0.80390
O81         O  0.28853886  0.56296980  0.14387137    -0.83750
O82         O  0.22285388  0.62528783  0.14385046    -2.18460
O83         O  0.30783627  0.77910977  0.11981176    -0.67140
O84         O  0.23216007  0.77143427  0.12317569    -0.51700
C85         C  0.26769022  0.79477320  0.12321852     0.71630
O86         O  0.34507526  0.59499406  0.03627118    -0.60050
O87         O  0.36255519  0.53534800  0.06643977    -0.52020
C88         C  0.35086015  0.55180500  0.04111322     0.73440
O89         O  0.22328067  0.69680358  0.03612762    -0.71440
O90         O  0.21287929  0.74791067  0.06990137    -0.50120
C91         C  0.22278924  0.73841082  0.04370858     0.74820
O92         O  0.42044045  0.67465774  0.10877986    -0.66770
O93         O  0.42455624  0.59760500  0.10283676    -0.53970
C94         C  0.44209339  0.63691506  0.10517504     0.73200
Zr95       Zr  0.34497336  0.70504115  0.11225442     2.77540
O96         O  0.37239277  0.75310816  0.07240921    -0.97520
O97         O  0.39103687  0.74459319  0.14649601    -0.78340
Zr98       Zr  0.28011929  0.63859247  0.05155404     2.70070
O99         O  0.30805048  0.67609976  0.00795456    -0.79590
O100        O  0.23322795  0.59127753  0.02214009    -0.98670
Zr101      Zr  0.35001279  0.57366485  0.11186979     2.21500
Zr102      Zr  0.22032936  0.69432006  0.11339973     2.11130
O103        O  0.28347961  0.70034483  0.08267760    -2.47360
O104        O  0.34591109  0.64212104  0.08114351    -0.79380
O105        O  0.28453535  0.69678713  0.14456379    -0.71580
O106        O  0.28343586  0.57142209  0.08197243    -2.32530
O107        O  0.34655420  0.63861214  0.14114112    -2.28740
O108        O  0.21821106  0.63126933  0.08242562    -0.73340
H109        H  0.19709445  0.62059714  0.15575117     0.78660
H110        H  0.28195711  0.54497110  0.07032580     0.79750
H111        H  0.28839627  0.72867111  0.07213760     0.81970
H112        H  0.37424451  0.64534529  0.15052839     0.79580
H113        H  0.20318922  0.51140261  0.06433585     0.42620
H114        H  0.20454446  0.58942280  0.03241615     0.41590
H115        H  0.32828237  0.69962805  0.01504646     0.41270
H116        H  0.40184928  0.76339765  0.07931371     0.39200
H117        H  0.37319279  0.74467409  0.16429024     0.42330
H118        H  0.33151759  0.66751204  0.22121672     0.37110
H119        H  0.27362747  0.54699921  0.20917949     0.43230
H120        H  0.17410207  0.53860965  0.16355037     0.39650
H121        H  0.37961055  0.73145544  0.05723069     0.44570
H122        H  0.31012766  0.62257565  0.23402542     0.43290
H123        H  0.16339449  0.50214039  0.14083765     0.43420
H124        H  0.22602728  0.61077601  0.00457255     0.44420
O125        O  0.80524538  0.06480488  0.06052934    -0.75090
O126        O  0.84066445  0.02445452  0.09824630    -0.54000
C127        C  0.82925032  0.03090736  0.07118303     0.78640
O128        O  0.80684428  0.27240772  0.13446146    -0.59690
O129        O  0.73049115  0.27745778  0.13776947    -0.52720
C130        C  0.76974179  0.29476838  0.13680390     0.70650
O131        O  0.91027747  0.15596519  0.13643196    -0.74250
O132        O  0.90439480  0.07818410  0.13998044    -0.54810
C133        C  0.92734426  0.11466756  0.13951904     0.76660
O134        O  0.71145823  0.18874806  0.05464851    -0.59390
O135        O  0.68156213  0.23603704  0.08781919    -0.52510
C136        C  0.68827105  0.22419600  0.06184426     0.73250
Zr137      Zr  0.76125503  0.12871308  0.07702474     2.54710
O138        O  0.80439347  0.16268541  0.03787545    -0.79960
O139        O  0.71223132  0.09010322  0.04394906    -0.93370
Zr140      Zr  0.83523452  0.19543080  0.13018783     2.64680
O141        O  0.86268387  0.22392460  0.08380754    -0.98330
O142        O  0.88929674  0.24284997  0.15391863    -0.80390
O143        O  0.82928325  0.12792539  0.10469935    -0.83750
O144        O  0.76765042  0.19623017  0.10273472    -2.18460
O145        O  0.62348706  0.10865110  0.12426366    -0.67140
O146        O  0.62680857  0.18658658  0.12220031    -0.51700
C147        C  0.60574638  0.14924384  0.11920885     0.71630
O148        O  0.81385208  0.07932487  0.21533801    -0.60050
O149        O  0.87069629  0.06261503  0.18734729    -0.52020
C150        C  0.85601212  0.07638466  0.21157327     0.73440
O151        O  0.71124744  0.19886833  0.21225641    -0.71440
O152        O  0.65818811  0.20997217  0.17775732    -0.50120
C153        C  0.67001212  0.20115675  0.20445098     0.74820
O154        O  0.72545939  0.00209877  0.16574297    -0.66770
O155        O  0.80149612  0.99773758  0.16261505    -0.53970
C156        C  0.76382420  0.98189035  0.17045678     0.73200
Zr157      Zr  0.69566755  0.07127070  0.14064471     2.77540
O158        O  0.63871537  0.04493461  0.17411792    -0.97520
O159        O  0.67263246  0.01407386  0.10714657    -0.78340
Zr160      Zr  0.76721989  0.14401509  0.19665651     2.70070
O161        O  0.74061474  0.11567314  0.24348929    -0.79590
O162        O  0.80885587  0.21055583  0.21146185    -0.98670
Zr163      Zr  0.82511692  0.06870059  0.14166911     2.21500
Zr164      Zr  0.70407165  0.20023781  0.13400914     2.11130
O165        O  0.70161334  0.13615393  0.16770723    -2.47360
O166        O  0.76044126  0.07652268  0.17066756    -0.79380
O167        O  0.69848522  0.13346373  0.10676961    -0.71580
O168        O  0.83051976  0.13861729  0.16649100    -2.32530
O169        O  0.75901140  0.06553838  0.11131432    -2.28740
O170        O  0.77211641  0.20345484  0.16122534    -0.73340
H171        H  0.76809469  0.22274470  0.08955441     0.78660
H172        H  0.85765804  0.14248579  0.17750661     0.79750
H173        H  0.67538175  0.13218445  0.17916881     0.81970
H174        H  0.75716851  0.03665857  0.10211051     0.79580
H175        H  0.89441766  0.22774961  0.17327725     0.42620
H176        H  0.84115804  0.20253510  0.21142063     0.41590
H177        H  0.74348191  0.14131175  0.25656620     0.41270
H178        H  0.62059725  0.07256330  0.17837616     0.39200
H179        H  0.65467255  0.03164480  0.09208738     0.42330
H180        H  0.71346977  0.05754434  0.05089184     0.37110
H181        H  0.83589688  0.15403983  0.04290945     0.43230
H182        H  0.85168080  0.25618124  0.08191844     0.39650
H183        H  0.61852911  0.02659077  0.16233763     0.44570
H184        H  0.72838933  0.09056019  0.02548012     0.43290
H185        H  0.89541393  0.22602352  0.08689637     0.43420
H186        H  0.80123027  0.21639291  0.23168187     0.43780
O187        O  0.92807557  0.61771095  0.13662493    -0.75090
O188        O  0.92375467  0.69591003  0.13529135    -0.54000
C189        C  0.94524208  0.65737817  0.13568233     0.78640
O190        O  0.77050222  0.59779075  0.04448104    -0.59690
O191        O  0.72806129  0.55326845  0.07440178    -0.52720
C192        C  0.74756377  0.56201640  0.05004599     0.70650
O193        O  0.86118084  0.71344617  0.05799634    -0.74250
O194        O  0.87839512  0.75797028  0.09546641    -0.54810
C195        C  0.88197468  0.74656351  0.06920882     0.76660
O196        O  0.82657684  0.50672259  0.13340584    -0.59390
O197        O  0.75081866  0.51102984  0.12744457    -0.52510
C198        C  0.78783166  0.48871858  0.13069933     0.73250
Zr199      Zr  0.85633091  0.58410987  0.13502212     2.54710
O200        O  0.90305828  0.54238236  0.10209644    -0.79960
O201        O  0.89199209  0.54383587  0.17679998    -0.93370
Zr202      Zr  0.80061380  0.66148970  0.06922312     2.64680
O203        O  0.84703801  0.64892004  0.02751468    -0.98330
O204        O  0.75187299  0.70805300  0.03640573    -0.80390
O205        O  0.85748233  0.65249668  0.10505535    -0.83750
O206        O  0.80226669  0.59164676  0.09812728    -2.18460
O207        O  0.74880335  0.57076830  0.19633513    -0.67140
O208        O  0.69194872  0.56343900  0.16510140    -0.51700
C209        C  0.70787150  0.56176233  0.19114430     0.71630
O210        O  0.74131694  0.77965539  0.15220486    -0.60050
O211        O  0.81643264  0.78847604  0.14992331    -0.52020
C212        C  0.77702366  0.80125246  0.15757080     0.73440
O213        O  0.64912576  0.68099818  0.11649445    -0.71440
O214        O  0.65532136  0.60446258  0.11021308    -0.50120
C215        C  0.63264777  0.64192971  0.11152844     0.74820
O216        O  0.83604650  0.69536009  0.21297593    -0.66770
O217        O  0.87549043  0.73693644  0.17970688    -0.53970
C218        C  0.86694767  0.72391975  0.20562396     0.73200
Zr219      Zr  0.77954399  0.64641820  0.18955578     2.77540
O220        O  0.71923581  0.68249719  0.21573033    -0.97520
O221        O  0.80099703  0.61753726  0.23802279    -0.78340
Zr222      Zr  0.71991069  0.71766466  0.12307302     2.70070
O223        O  0.65493436  0.76029612  0.13957701    -0.79590
O224        O  0.70568464  0.77002536  0.08139997    -0.98670
Zr225      Zr  0.84525300  0.71509781  0.13499552     2.21500
Zr226      Zr  0.73226113  0.58951310  0.12182475     2.11130
O227        O  0.72016580  0.65094238  0.15380788    -2.47360
O228        O  0.77668744  0.71215117  0.15921307    -0.79380
O229        O  0.78836682  0.58313238  0.15933866    -0.71580
O230        O  0.78841699  0.72461969  0.09847661    -2.32530
O231        O  0.84838465  0.64660752  0.16534021    -2.28740
O232        O  0.72983701  0.65742896  0.09137134    -0.73340
H233        H  0.80852940  0.56515984  0.08706826     0.78660
H234        H  0.79024748  0.75367302  0.08782831     0.79750
H235        H  0.69158850  0.64905748  0.16313580     0.81970
H236        H  0.87360977  0.64559547  0.17865231     0.79580
H237        H  0.72875779  0.68681986  0.03002724     0.42620
H238        H  0.67480940  0.76346830  0.07501536     0.41590
H239        H  0.65034081  0.74785398  0.15949991     0.41270
H240        H  0.69832193  0.65749172  0.22014166     0.39200
H241        H  0.82824087  0.59835879  0.23528482     0.42330
H242        H  0.90740330  0.56777082  0.18736577     0.37110
H243        H  0.90235166  0.56187961  0.08405502     0.43230
H244        H  0.86313888  0.61941446  0.03209301     0.39650
H245        H  0.73287598  0.68908284  0.23466345     0.44570
H246        H  0.91652437  0.52538600  0.16862311     0.43290
H247        H  0.82607863  0.64296971  0.01142644     0.43420
H248        H  0.70326311  0.80068700  0.08959823     0.43780
O249        O  0.20825224  0.28882783  0.93998649    -0.75090
O250        O  0.18672257  0.36428886  0.94207713    -0.54000
C251        C  0.18970182  0.32276640  0.95231281     0.78640
O252        O  0.40958381  0.34041419  0.88798233    -0.59690
O253        O  0.40365254  0.30773490  0.84421172    -0.52720
C254        C  0.42598911  0.32374916  0.86542685     0.70650
O255        O  0.31991793  0.40946023  0.94461782    -0.74250
O256        O  0.24780781  0.43645994  0.94011196    -0.54810
C257        C  0.28673095  0.43373648  0.95293416     0.76660
O258        O  0.29798326  0.20560044  0.88456395    -0.59390
O259        O  0.34079727  0.22127867  0.84532468    -0.52510
C260        C  0.32738904  0.19428973  0.86597503     0.73250
Zr261      Zr  0.25070971  0.27014663  0.89793618     2.54710
O262        O  0.27466776  0.22273508  0.94017879    -0.79960
O263        O  0.19058565  0.21739291  0.88944503    -0.93370
Zr264      Zr  0.33845350  0.36536074  0.90368322     2.64680
O265        O  0.36642741  0.31829959  0.94517822    -0.98330
O266        O  0.39210473  0.42576004  0.90936243    -0.80390
O267        O  0.26763806  0.34133623  0.91751212    -0.83750
O268        O  0.32321572  0.29353943  0.88510305    -2.18460
O269        O  0.22846331  0.26352619  0.81196589    -0.67140
O270        O  0.29062437  0.27453888  0.78843790    -0.51700
C271        C  0.24886274  0.26537523  0.78818333     0.71630
O272        O  0.25356951  0.49631321  0.85009301    -0.60050
O273        O  0.20918359  0.48078336  0.88896025    -0.52020
C274        C  0.22862428  0.50814638  0.87088383     0.73440
O275        O  0.35135724  0.41448772  0.79953003    -0.71440
O276        O  0.36861588  0.33843247  0.79677695    -0.50120
C277        C  0.37460824  0.38087919  0.78968525     0.74820
O278        O  0.12649050  0.35536400  0.84924553    -0.66770
O279        O  0.13410580  0.39745053  0.88926343    -0.53970
C280        C  0.11043346  0.37741914  0.87013902     0.73200
Zr281      Zr  0.19734777  0.33391422  0.82912792     2.77540
O282        O  0.17592139  0.37689205  0.78440940    -0.97520
O283        O  0.13514023  0.29077996  0.81072523    -0.78340
Zr284      Zr  0.28801149  0.42788058  0.83194713     2.70070
O285        O  0.25153306  0.45600458  0.78702939    -0.79590
O286        O  0.33698234  0.49332443  0.83160031    -0.98670
Zr287      Zr  0.21560264  0.39829488  0.89810704     2.21500
Zr288      Zr  0.32357605  0.30182133  0.83344100     2.11130
O289        O  0.26919699  0.35714653  0.81324456    -2.47360
O290        O  0.21486635  0.40670562  0.84640573    -0.79380
O291        O  0.25061242  0.27734182  0.84724490    -0.71580
O292        O  0.28798324  0.42141075  0.88337064    -2.32530
O293        O  0.19668224  0.32532726  0.88025794    -2.28740
O294        O  0.34023004  0.37372802  0.85263618    -0.73340
H295        H  0.34615453  0.27199477  0.89238146     0.78660
H296        H  0.29555379  0.45036792  0.89118313     0.79750
H297        H  0.27096091  0.35937144  0.79248158     0.81970
H298        H  0.16852380  0.31473886  0.88751485     0.79580
H299        H  0.39025117  0.44389095  0.89080022     0.42620
H300        H  0.36707886  0.48025460  0.83680424     0.41590
H301        H  0.22167115  0.46726974  0.79287408     0.41270
H302        H  0.20285655  0.37843699  0.77241015     0.39200
H303        H  0.13326972  0.26389018  0.82438985     0.42330
H304        H  0.16634470  0.22714743  0.90228138     0.37110
H305        H  0.29703619  0.24130798  0.95005270     0.43230
H306        H  0.38527014  0.29388781  0.93703999     0.39650
H307        H  0.15549181  0.35689893  0.77401422     0.44570
H308        H  0.20180605  0.18772364  0.89827386     0.43290
H309        H  0.38798110  0.33792616  0.95494709     0.43420
H310        H  0.33893003  0.50355985  0.81102166     0.43780
O311        O  0.28008809  0.93858969  0.94060982    -0.75090
O312        O  0.35572017  0.94674482  0.94446354    -0.54000
C313        C  0.31547605  0.95864191  0.95026395     0.78640
O314        O  0.30169900  0.70565690  0.89833569    -0.59690
O315        O  0.26798860  0.71951642  0.85439616    -0.52720
C316        C  0.27696920  0.69390352  0.87703499     0.70650
O317        O  0.37434806  0.79129944  0.95943524    -0.74250
O318        O  0.35719459  0.86586218  0.95976126    -0.54810
C319        C  0.35487175  0.82461117  0.97139361     0.76660
O320        O  0.19636082  0.82914816  0.89909824    -0.59390
O321        O  0.20214211  0.81336437  0.85188292    -0.52510
C322        C  0.17891355  0.82254811  0.87448399     0.73250
Zr323      Zr  0.25845759  0.87589176  0.90773665     2.54710
O324        O  0.22166457  0.86206228  0.95371017    -0.79960
O325        O  0.20116869  0.93225608  0.89132060    -0.93370
Zr326      Zr  0.34977623  0.76790524  0.91223515     2.64680
O327        O  0.34451086  0.71121670  0.95224997    -0.98330
O328        O  0.41658487  0.72248020  0.90201348    -0.80390
O329        O  0.32661461  0.84357126  0.92187946    -0.83750
O330        O  0.27891008  0.79803046  0.89549760    -2.18460
O331        O  0.25387026  0.89670761  0.79903797    -0.67140
O332        O  0.24727654  0.81898914  0.80055051    -0.51700
C333        C  0.23758413  0.85871615  0.78961260     0.71630
O334        O  0.46897743  0.87573758  0.86177882    -0.60050
O335        O  0.46379576  0.88514045  0.90946068    -0.52020
C336        C  0.48708466  0.87772858  0.88677656     0.73440
O337        O  0.38993325  0.76608521  0.81610734    -0.71440
O338        O  0.32275545  0.78189419  0.79721439    -0.50120
C339        C  0.36575218  0.77788342  0.79419070     0.74820
O340        O  0.34881265  0.99028584  0.85073439    -0.66770
O341        O  0.38745285  0.97712792  0.89377757    -0.53970
C342        C  0.37187948  0.00327787  0.87240229     0.73200
Zr343      Zr  0.31167554  0.92212568  0.83624836     2.77540
O344        O  0.34783837  0.94598873  0.79155205    -0.97520
O345        O  0.25726873  0.98556353  0.83240585    -0.78340
Zr346      Zr  0.41043394  0.82567381  0.84747202     2.70070
O347        O  0.44775423  0.85914557  0.80583813    -0.79590
O348        O  0.47396164  0.77189977  0.85293198    -0.98670
Zr349      Zr  0.38129351  0.89594142  0.90995161     2.21500
Zr350      Zr  0.28415726  0.79847833  0.84389116     2.11130
O351        O  0.33951831  0.85047716  0.82705655    -2.47360
O352        O  0.38291738  0.89937726  0.85835978    -0.79380
O353        O  0.25856633  0.87317772  0.85648412    -0.71580
O354        O  0.40648103  0.82007676  0.89854641    -2.32530
O355        O  0.31190495  0.92398958  0.88745187    -2.28740
O356        O  0.35599939  0.77063350  0.86182488    -0.73340
H357        H  0.25669342  0.77687319  0.90221786     0.78660
H358        H  0.43437424  0.81002307  0.90785647     0.79750
H359        H  0.34142015  0.85527368  0.80662251     0.81970
H360        H  0.30441528  0.95499937  0.89221881     0.79580
H361        H  0.43425439  0.72121807  0.92030979     0.42620
H362        H  0.48704542  0.77708378  0.87223782     0.41590
H363        H  0.43315253  0.88975970  0.80252966     0.41270
H364        H  0.32507075  0.94162866  0.77622740     0.39200
H365        H  0.22799905  0.97104028  0.83524175     0.42330
H366        H  0.21340302  0.96210360  0.89637462     0.37110
H367        H  0.24132669  0.87492375  0.96853786     0.43230
H368        H  0.31342587  0.70033776  0.95177629     0.39650
H369        H  0.35004874  0.97965804  0.79236157     0.44570
H370        H  0.17619020  0.92739430  0.90477631     0.43290
H371        H  0.36298639  0.68463466  0.94656210     0.43420
H372        H  0.49626381  0.78403966  0.83922453     0.43780
O373        O  0.70417209  0.28103393  0.94245758    -0.75090
O374        O  0.67827681  0.35518856  0.94378339    -0.54000
C375        C  0.68323596  0.31381475  0.95444322     0.78640
O376        O  0.90354578  0.35670507  0.89576127    -0.59690
O377        O  0.90317264  0.31932116  0.85335724    -0.52720
C378        C  0.92308174  0.33924494  0.87431671     0.70650
O379        O  0.79588042  0.41762180  0.95035728    -0.74250
O380        O  0.72038479  0.42875893  0.94484948    -0.54810
C381        C  0.75741925  0.43382613  0.95836124     0.76660
O382        O  0.80098666  0.20660401  0.88882553    -0.59390
O383        O  0.84369425  0.22584171  0.84999749    -0.52510
C384        C  0.83122991  0.19747030  0.87032621     0.73250
Zr385      Zr  0.74893429  0.26857179  0.90043245     2.54710
O386        O  0.77101915  0.21910851  0.94215315    -0.79960
O387        O  0.69150803  0.21465510  0.88822519    -0.93370
Zr388      Zr  0.82885239  0.37037352  0.91217884     2.64680
O389        O  0.85297321  0.31984161  0.95298120    -0.98330
O390        O  0.88042477  0.42864760  0.92665451    -0.80390
O391        O  0.75885312  0.34017659  0.92154684    -0.83750
O392        O  0.82045653  0.29817859  0.89092009    -2.18460
O393        O  0.72918216  0.26454867  0.81115362    -0.67140
O394        O  0.79230471  0.28401568  0.79108864    -0.51700
C395        C  0.75146084  0.27082459  0.78844170     0.71630
O396        O  0.73105676  0.49190375  0.84920723    -0.60050
O397        O  0.70609037  0.47892157  0.89466615    -0.52020
C398        C  0.71866552  0.50595468  0.87368176     0.73440
O399        O  0.84950307  0.42192928  0.80733295    -0.71440
O400        O  0.87053189  0.34667376  0.80456947    -0.50120
C401        C  0.87482395  0.38950580  0.79784507     0.74820
O402        O  0.62520167  0.35083953  0.84812893    -0.66770
O403        O  0.62696992  0.39364659  0.88808487    -0.53970
C404        C  0.60662631  0.37211523  0.86839354     0.73200
Zr405      Zr  0.69798437  0.33237625  0.83052778     2.77540
O406        O  0.67859384  0.37486015  0.78526900    -0.97520
O407        O  0.63782180  0.28773696  0.81085549    -0.78340
Zr408      Zr  0.78362320  0.43119195  0.83838218     2.70070
O409        O  0.76101054  0.46421683  0.79107407    -0.79590
O410        O  0.82933503  0.49653099  0.84865227    -0.98670
Zr411      Zr  0.70598490  0.39444107  0.90017673     2.21500
Zr412      Zr  0.82440747  0.30686511  0.83904617     2.11130
O413        O  0.76963012  0.36056289  0.81790114    -2.47360
O414        O  0.71012152  0.40538590  0.84888912    -0.79380
O415        O  0.75228985  0.27746953  0.84976724    -0.71580
O416        O  0.77824409  0.42365990  0.88957416    -2.32530
O417        O  0.69302122  0.32097621  0.88132737    -2.28740
O418        O  0.83482057  0.37838429  0.86098852    -0.73340
H419        H  0.84399598  0.27765097  0.89859096     0.78660
H420        H  0.78365882  0.45278385  0.89785830     0.79750
H421        H  0.77301698  0.36439386  0.79728363     0.81970
H422        H  0.66471503  0.30892435  0.88733159     0.79580
H423        H  0.87410198  0.45491499  0.91282122     0.42620
H424        H  0.85936377  0.48301806  0.85354619     0.41590
H425        H  0.72813717  0.46091704  0.79022481     0.41270
H426        H  0.70636499  0.37708536  0.77411403     0.39200
H427        H  0.63519457  0.26132535  0.82481950     0.42330
H428        H  0.66671344  0.22113784  0.90145192     0.37110
H429        H  0.79516608  0.23573559  0.95175251     0.43230
H430        H  0.88200042  0.30643622  0.94714661     0.39650
H431        H  0.65963105  0.35419984  0.77428099     0.44570
H432        H  0.70397275  0.18443014  0.89532308     0.43290
H433        H  0.86091661  0.34085480  0.96833261     0.43420
H434        H  0.83289901  0.51276636  0.82965731     0.43780
O435        O  0.79975579  0.90604244  0.96261700    -0.75090
O436        O  0.86923661  0.93171224  0.95219469    -0.54000
C437        C  0.83549559  0.92799424  0.96885714     0.78640
O438        O  0.80926738  0.70036081  0.89964989    -0.59690
O439        O  0.76657001  0.71978152  0.85961084    -0.52720
C440        C  0.78027745  0.69107948  0.87976147     0.70650
O441        O  0.89972066  0.78712719  0.95405724    -0.74250
O442        O  0.92079788  0.86196008  0.95345976    -0.54810
C443        C  0.91847391  0.82140445  0.96540887     0.76660
O444        O  0.69455306  0.84473978  0.90776218    -0.59390
O445        O  0.69778428  0.81364084  0.86339468    -0.52510
C446        C  0.67615909  0.82976643  0.88505476     0.73250
Zr447      Zr  0.76855434  0.86664583  0.92084785     2.54710
O448        O  0.74270564  0.82191607  0.96258235    -0.79960
O449        O  0.71999040  0.93310043  0.92823047    -0.93370
Zr450      Zr  0.85662050  0.76602526  0.91201848     2.64680
O451        O  0.84021458  0.72051536  0.95574553    -0.98330
O452        O  0.91882684  0.71341429  0.90328099    -0.80390
O453        O  0.84172863  0.83989528  0.92982141    -0.83750
O454        O  0.78268534  0.79306010  0.90179994    -2.18460
O455        O  0.74215649  0.89943688  0.80862324    -0.67140
O456        O  0.72862320  0.82281270  0.81312305    -0.51700
C457        C  0.72124123  0.86241091  0.80142726     0.71630
O458        O  0.97429799  0.85070317  0.85721004    -0.60050
O459        O  0.97029074  0.89204271  0.89752959    -0.52020
C460        C  0.99223417  0.87182715  0.87766403     0.73440
O461        O  0.87421227  0.76786682  0.81564933    -0.71440
O462        O  0.80719657  0.78797130  0.79968983    -0.50120
C463        C  0.84938386  0.78182057  0.79469786     0.74820
O464        O  0.84086187  0.99229255  0.85759811    -0.66770
O465        O  0.89084433  0.97879587  0.89530040    -0.53970
C466        C  0.86976814  0.00538148  0.87613858     0.73200
Zr467      Zr  0.80172995  0.92419989  0.84534756     2.77540
O468        O  0.82217195  0.96266345  0.79994260    -0.97520
O469        O  0.74090302  0.97927731  0.85238326    -0.78340
Zr470      Zr  0.90145903  0.82955151  0.84222163     2.70070
O471        O  0.92174768  0.87854063  0.80107724    -0.79590
O472        O  0.96706972  0.78269801  0.83100988    -0.98670
Zr473      Zr  0.88931748  0.89573366  0.90823735     2.21500
Zr474      Zr  0.77795423  0.79980656  0.85009021     2.11130
O475        O  0.82709048  0.85492912  0.82906440    -2.47360
O476        O  0.87898293  0.90290769  0.85717402    -0.79380
O477        O  0.75735671  0.87098895  0.86968514    -0.71580
O478        O  0.90756384  0.82060932  0.89278683    -2.32530
O479        O  0.81362441  0.92077643  0.89682027    -2.28740
O480        O  0.85263146  0.77229831  0.86113572    -0.73340
H481        H  0.76107487  0.77186914  0.90940007     0.78660
H482        H  0.93721129  0.81040291  0.89916540     0.79750
H483        H  0.82406910  0.86124700  0.80865395     0.81970
H484        H  0.80735454  0.95040563  0.90449685     0.79580
H485        H  0.93890546  0.71553430  0.92035666     0.42620
H486        H  0.95639944  0.75139441  0.82819940     0.41590
H487        H  0.90436844  0.90748650  0.80297455     0.41270
H488        H  0.81789731  0.93969748  0.78514391     0.39200
H489        H  0.71366526  0.96067108  0.85296818     0.42330
H490        H  0.70385909  0.93895450  0.90954385     0.37110
H491        H  0.76982838  0.80506266  0.97024810     0.43230
H492        H  0.80714408  0.71948334  0.95617430     0.39650
H493        H  0.79784466  0.98578785  0.79588059     0.44570
H494        H  0.69689239  0.92166474  0.94160094     0.43290
H495        H  0.85017071  0.68884937  0.95184514     0.43420
H496        H  0.97680796  0.79419994  0.81178880     0.43780
O497        O  0.96914784  0.43152955  0.68516270    -0.75090
O498        O  0.03466338  0.40118898  0.70090951    -0.54000
C499        C  0.99600157  0.41957365  0.70580590     0.78640
O500        O  0.96512561  0.20341075  0.65581171    -0.59690
O501        O  0.95161533  0.21196563  0.60769408    -0.52720
C502        C  0.95928728  0.18679477  0.63113557     0.70650
O503        O  0.08094227  0.27291061  0.69666456    -0.74250
O504        O  0.11084820  0.34358205  0.68988227    -0.54810
C505        C  0.11091114  0.30286294  0.70181444     0.76660
O506        O  0.86453030  0.36507145  0.63122792    -0.59390
O507        O  0.86838768  0.30466264  0.60191107    -0.52510
C508        C  0.84692923  0.33604848  0.61470764     0.73250
Zr509      Zr  0.93567852  0.37471510  0.65579996     2.54710
O510        O  0.90315408  0.33775835  0.69834179    -0.79960
O511        O  0.88017958  0.43423149  0.66567630    -0.93370
Zr512      Zr  0.01471153  0.26452039  0.66477354     2.64680
O513        O  0.98271946  0.25256398  0.71237180    -0.98330
O514        O  0.05703033  0.19210433  0.66820166    -0.80390
O515        O  0.00352082  0.34130356  0.67565925    -0.83750
O516        O  0.94473525  0.29659645  0.64579540    -2.18460
O517        O  0.93003127  0.39823535  0.56140403    -0.67140
O518        O  0.93357679  0.33057190  0.54355462    -0.51700
C519        C  0.93309985  0.37454367  0.53938314     0.71630
O520        O  0.13929256  0.32766595  0.59857302    -0.60050
O521        O  0.13828010  0.37819003  0.63526824    -0.52020
C522        C  0.15785001  0.35490197  0.61589928     0.73440
O523        O  0.02768012  0.24437795  0.55156294    -0.71440
O524        O  0.95386445  0.23829705  0.56252896    -0.50120
C525        C  0.98727988  0.22871384  0.54731259     0.74820
O526        O  0.05092391  0.47196355  0.59850145    -0.66770
O527        O  0.06412175  0.46559471  0.64623841    -0.53970
C528        C  0.05325279  0.48982726  0.62307086     0.73200
Zr529      Zr  0.00000054  0.41337797  0.58396382     2.77540
O530        O  0.04422516  0.42692945  0.54094600    -0.97520
O531        O  0.96502087  0.48718637  0.56959940    -0.78340
Zr532      Zr  0.06828535  0.29399474  0.58840569     2.70070
O533        O  0.10984417  0.30167569  0.54383973    -0.79590
O534        O  0.10969063  0.22271000  0.60050523    -0.98670
Zr535      Zr  0.06272048  0.38146159  0.65295473     2.21500
Zr536      Zr  0.94642420  0.29587721  0.59413899     2.11130
O537        O  0.00626625  0.33535693  0.57043076    -2.47360
O538        O  0.06421386  0.37308922  0.60163608    -0.79380
O539        O  0.93817986  0.37467218  0.60495108    -0.71580
O540        O  0.07140768  0.30285518  0.63956871    -2.32530
O541        O  0.99414740  0.41690303  0.63431259    -2.28740
O542        O  0.01185880  0.25822353  0.61368823    -0.73340
H543        H  0.91969029  0.27963532  0.65311539     0.78660
H544        H  0.10030969  0.29038455  0.64587750     0.79750
H545        H  0.00890179  0.33300268  0.54984897     0.81970
H546        H  0.98753561  0.44841136  0.63821651     0.79580
H547        H  0.04630914  0.17613277  0.68595547     0.42620
H548        H  0.11173141  0.20725335  0.58198414     0.41590
H549        H  0.09447438  0.32728974  0.53266260     0.41270
H550        H  0.04409582  0.39834804  0.53036993     0.39200
H551        H  0.94925109  0.49668551  0.58704641     0.42330
H552        H  0.89367020  0.46333570  0.65895333     0.37110
H553        H  0.92896603  0.32957002  0.71133897     0.43230
H554        H  0.95209770  0.24185713  0.70857767     0.39650
H555        H  0.02685343  0.44987996  0.52878936     0.44570
H556        H  0.87983189  0.43543355  0.68698449     0.43290
H557        H  0.99910065  0.22527628  0.72098436     0.43420
H558        H  0.14061849  0.23218197  0.60470117     0.43780
O559        O  0.93094783  0.91031298  0.69305745    -0.75090
O560        O  0.99657215  0.87994320  0.70560977    -0.54000
C561        C  0.95553193  0.89087729  0.71239288     0.78640
O562        O  0.99645032  0.68893443  0.65075110    -0.59690
O563        O  0.94704220  0.69373939  0.61236809    -0.52720
C564        C  0.97380395  0.67104654  0.63064104     0.70650
O565        O  0.07120887  0.79473102  0.70311209    -0.74250
O566        O  0.08094771  0.87194344  0.69658028    -0.54810
C567        C  0.09008349  0.83336273  0.70942809     0.76660
O568        O  0.84045050  0.83623035  0.63758488    -0.59390
O569        O  0.84967183  0.77903303  0.60640560    -0.52510
C570        C  0.82514837  0.80726490  0.62043119     0.73250
Zr571      Zr  0.91010005  0.85512485  0.65931796     2.54710
O572        O  0.87231514  0.81110801  0.69706033    -0.79960
O573        O  0.85106345  0.91400073  0.66130340    -0.93370
Zr574      Zr  0.01093071  0.76235176  0.66959808     2.64680
O575        O  0.97080350  0.73579678  0.71206902    -0.98330
O576        O  0.06780305  0.70457655  0.68443076    -0.80390
O577        O  0.98356461  0.83471631  0.67717493    -0.83750
O578        O  0.93465559  0.77857699  0.65174518    -2.18460
O579        O  0.89873337  0.87639235  0.56922823    -0.67140
O580        O  0.91000514  0.80956620  0.55094969    -0.51700
C581        C  0.90314804  0.85300194  0.54710572     0.71630
O582        O  0.12292180  0.83737351  0.60134387    -0.60050
O583        O  0.11681412  0.87715644  0.64282648    -0.52020
C584        C  0.13978395  0.85842515  0.62243236     0.73440
O585        O  0.02329739  0.74695927  0.55417406    -0.71440
O586        O  0.95112730  0.72789543  0.56368147    -0.50120
C587        C  0.98625934  0.72557504  0.54867007     0.74820
O588        O  0.98530292  0.97865977  0.60723166    -0.66770
O589        O  0.02888907  0.96953644  0.64809306    -0.53970
C590        C  0.00692759  0.99452879  0.62859630     0.73200
Zr591      Zr  0.96670678  0.90490464  0.58867531     2.77540
O592        O  0.01709667  0.92165288  0.54902336    -0.97520
O593        O  0.92699386  0.96863353  0.56313679    -0.78340
Zr594      Zr  0.05372502  0.80037083  0.59196773     2.70070
O595        O  0.09019504  0.82075124  0.54676955    -0.79590
O596        O  0.10241387  0.73324194  0.60202394    -0.98670
Zr597      Zr  0.03511251  0.88548833  0.65613407     2.21500
Zr598      Zr  0.93168635  0.77704181  0.60001604     2.11130
O599        O  0.98374537  0.82783399  0.57622770    -2.47360
O600        O  0.03817665  0.87858991  0.60476131    -0.79380
O601        O  0.91223239  0.85475594  0.60902177    -0.71580
O602        O  0.05862603  0.80960759  0.64318926    -2.32530
O603        O  0.96149677  0.90829873  0.63920442    -2.28740
O604        O  0.00469732  0.75550602  0.61849751    -0.73340
H605        H  0.91433050  0.75638667  0.65972973     0.78660
H606        H  0.08844003  0.80094652  0.65003676     0.79750
H607        H  0.98504634  0.82576884  0.55561073     0.81970
H608        H  0.95095273  0.93770400  0.64526681     0.79580
H609        H  0.09174137  0.70860505  0.67010574     0.42620
H610        H  0.10571940  0.71920496  0.58311155     0.41590
H611        H  0.06608300  0.82110048  0.53184339     0.41270
H612        H  0.02122068  0.89296296  0.53879977     0.39200
H613        H  0.90082684  0.97511240  0.57524851     0.42330
H614        H  0.86624309  0.94366425  0.66206590     0.37110
H615        H  0.89307675  0.78545243  0.70307799     0.43230
H616        H  0.95512144  0.70831024  0.70592959     0.39650
H617        H  0.00007550  0.94285821  0.53544271     0.44570
H618        H  0.83749088  0.90917916  0.68047535     0.43290
H619        H  0.99453205  0.72361233  0.72568870     0.43420
H620        H  0.13222596  0.74563655  0.60627458     0.43780
O621        O  0.47386772  0.42313978  0.67940783    -0.75090
O622        O  0.53874644  0.39170547  0.69464575    -0.54000
C623        C  0.50048489  0.41067780  0.69993452     0.78640
O624        O  0.46291463  0.19675936  0.65473469    -0.59690
O625        O  0.44515542  0.20040315  0.60718614    -0.52720
C626        C  0.45628480  0.17768060  0.63089583     0.70650
O627        O  0.58605968  0.26645412  0.69209746    -0.74250
O628        O  0.61559107  0.33669723  0.68254572    -0.54810
C629        C  0.61635443  0.29697764  0.69599452     0.76660
O630        O  0.36480170  0.34932197  0.63475064    -0.59390
O631        O  0.36344934  0.29389817  0.60172165    -0.52510
C632        C  0.34465936  0.32306480  0.61774017     0.73250
Zr633      Zr  0.43816246  0.36490778  0.65266010     2.54710
O634        O  0.40751099  0.33718315  0.69830157    -0.79960
O635        O  0.38558693  0.42920034  0.65700135    -0.93370
Zr636      Zr  0.51727573  0.25475007  0.66165127     2.64680
O637        O  0.49035839  0.24228356  0.71057351    -0.98330
O638        O  0.55873955  0.18187621  0.66433354    -0.80390
O639        O  0.50697264  0.33213760  0.67119885    -0.83750
O640        O  0.44580151  0.28630515  0.64417242    -2.18460
O641        O  0.42329128  0.38318925  0.56092910    -0.67140
O642        O  0.42262057  0.31584468  0.54272403    -0.51700
C643        C  0.42216103  0.35967223  0.53878284     0.71630
O644        O  0.63723396  0.30878806  0.59374658    -0.60050
O645        O  0.63796249  0.36638278  0.62604758    -0.52020
C646        C  0.65683517  0.33870590  0.60881786     0.73440
O647        O  0.52211853  0.22072658  0.55131442    -0.71440
O648        O  0.44701922  0.22767655  0.55805872    -0.50120
C649        C  0.48034759  0.20941856  0.54588184     0.74820
O650        O  0.52814193  0.46811563  0.59316887    -0.66770
O651        O  0.56415234  0.45674712  0.63663935    -0.53970
C652        C  0.54605319  0.48318502  0.61603407     0.73200
Zr653      Zr  0.49704036  0.39770936  0.57786719     2.77540
O654        O  0.54721066  0.40229800  0.53697225    -0.97520
O655        O  0.46912694  0.46740323  0.55223090    -0.78340
Zr656      Zr  0.56402075  0.27904226  0.58283293     2.70070
O657        O  0.59518304  0.29380234  0.53522348    -0.79590
O658        O  0.61019557  0.20959042  0.59026833    -0.98670
Zr659      Zr  0.56413541  0.37159552  0.64583763     2.21500
Zr660      Zr  0.44145574  0.28271073  0.59242410     2.11130
O661        O  0.50012342  0.31907337  0.56590617    -2.47360
O662        O  0.56262802  0.35926876  0.59469743    -0.79380
O663        O  0.43581541  0.36217419  0.60173133    -0.71580
O664        O  0.57130564  0.29184877  0.63369177    -2.32530
O665        O  0.49462256  0.40470392  0.62809686    -2.28740
O666        O  0.50886252  0.24605628  0.61079970    -0.73340
H667        H  0.42113526  0.27053679  0.65298596     0.78660
H668        H  0.60034695  0.27946065  0.63977017     0.79750
H669        H  0.49969966  0.31511953  0.54537157     0.81970
H670        H  0.48674554  0.43591356  0.63181911     0.79580
H671        H  0.58049642  0.18452206  0.64853248     0.42620
H672        H  0.58851224  0.18455939  0.59183863     0.41590
H673        H  0.61285100  0.32177423  0.53707019     0.41270
H674        H  0.54349105  0.37407414  0.52633543     0.39200
H675        H  0.44491759  0.47912635  0.56444027     0.42330
H676        H  0.40122008  0.45620598  0.64888077     0.37110
H677        H  0.42488545  0.30869136  0.70354628     0.43230
H678        H  0.46058921  0.22866630  0.70823063     0.39650
H679        H  0.53480877  0.42742085  0.52398363     0.44570
H680        H  0.38413176  0.43399739  0.67797666     0.43290
H681        H  0.50963275  0.21687251  0.71898678     0.43420
H682        H  0.62461840  0.20560048  0.57145089     0.43780
O683        O  0.44057413  0.90932294  0.69196354    -0.75090
O684        O  0.50697845  0.88171528  0.70497074    -0.54000
C685        C  0.46576910  0.89099274  0.71152137     0.78640
O686        O  0.50072627  0.68667978  0.65080070    -0.59690
O687        O  0.45105776  0.69160220  0.61259363    -0.52720
C688        C  0.47836000  0.66873648  0.63061668     0.70650
O689        O  0.57258781  0.79310499  0.70425488    -0.74250
O690        O  0.58971214  0.86770292  0.69330022    -0.54810
C691        C  0.59495454  0.83056073  0.70847339     0.76660
O692        O  0.34719946  0.84868874  0.63158844    -0.59390
O693        O  0.35184653  0.78203193  0.60834235    -0.52510
C694        C  0.32921930  0.81604050  0.61866639     0.73250
Zr695      Zr  0.41503428  0.85390793  0.65935370     2.54710
O696        O  0.37696635  0.80614751  0.69516698    -0.79960
O697        O  0.35967747  0.91086768  0.67352597    -0.93370
Zr698      Zr  0.51443836  0.76009673  0.66951447     2.64680
O699        O  0.47393922  0.73321800  0.71174949    -0.98330
O700        O  0.57182692  0.70276888  0.68416861    -0.80390
O701        O  0.48857987  0.83300601  0.67629226    -0.83750
O702        O  0.43807039  0.77674681  0.65176972    -2.18460
O703        O  0.40520268  0.87376951  0.56590960    -0.67140
O704        O  0.41673140  0.80618254  0.54918398    -0.51700
C705        C  0.41237661  0.84981016  0.54433692     0.71630
O706        O  0.61558518  0.85249489  0.59479943    -0.60050
O707        O  0.62013656  0.87312981  0.64105712    -0.52020
C708        C  0.63836729  0.85933170  0.61771484     0.73440
O709        O  0.52395222  0.74717232  0.55267956    -0.71440
O710        O  0.45212759  0.72684428  0.56262882    -0.50120
C711        C  0.48669205  0.72624090  0.54694672     0.74820
O712        O  0.49372636  0.97435859  0.60542098    -0.66770
O713        O  0.53710578  0.96602299  0.64627759    -0.53970
C714        C  0.51571444  0.99054346  0.62643785     0.73200
Zr715      Zr  0.47146815  0.90179795  0.58791876     2.77540
O716        O  0.52275104  0.91699134  0.54851920    -0.97520
O717        O  0.43229711  0.97023499  0.56777623    -0.78340
Zr718      Zr  0.55785096  0.79637709  0.59174339     2.70070
O719        O  0.60215052  0.79981672  0.54818172    -0.79590
O720        O  0.60952003  0.73380330  0.60680585    -0.98670
Zr721      Zr  0.54054689  0.88271760  0.65475140     2.21500
Zr722      Zr  0.43433031  0.77520769  0.59978976     2.11130
O723        O  0.48809527  0.82454972  0.57620745    -2.47360
O724        O  0.54277112  0.87505237  0.60357742    -0.79380
O725        O  0.41616274  0.85340110  0.60879798    -0.71580
O726        O  0.56344322  0.80584248  0.64290247    -2.32530
O727        O  0.46684428  0.90590758  0.63839426    -2.28740
O728        O  0.50739644  0.75328015  0.61841519    -0.73340
H729        H  0.41761604  0.75479930  0.65988367     0.78660
H730        H  0.59328456  0.79718888  0.64975378     0.79750
H731        H  0.49055640  0.82306882  0.55562018     0.81970
H732        H  0.45714067  0.93590201  0.64395700     0.79580
H733        H  0.59514953  0.70623109  0.66937663     0.42620
H734        H  0.60989296  0.71360213  0.59022126     0.41590
H735        H  0.58581245  0.82240052  0.53508026     0.41270
H736        H  0.52242568  0.89020117  0.53630046     0.39200
H737        H  0.40537011  0.97329181  0.57975149     0.42330
H738        H  0.35188422  0.92924667  0.65559711     0.37110
H739        H  0.40063182  0.78630328  0.70467563     0.43230
H740        H  0.45796341  0.70604984  0.70538210     0.39650
H741        H  0.50889525  0.94265429  0.53665923     0.44570
H742        H  0.33244015  0.89355073  0.67810416     0.43290
H743        H  0.49754577  0.72051887  0.72528666     0.43420
H744        H  0.63932731  0.74786059  0.60677878     0.43780
O745        O  0.04472431  0.06591922  0.30880383    -0.75090
O746        O  0.07369091  0.13465950  0.32093880    -0.54000
C747        C  0.07197681  0.10003044  0.30542346     0.78640
O748        O  0.82544720  0.13725514  0.36841218    -0.59690
O749        O  0.82543381  0.07337122  0.39821616    -0.52720
C750        C  0.80521238  0.10745684  0.38416332     0.70650
O751        O  0.93460937  0.19470765  0.31190755    -0.74250
O752        O  0.00051917  0.16308810  0.30446938    -0.54810
C753        C  0.96114024  0.17560888  0.29474443     0.76660
O754        O  0.92970047  0.98058345  0.35058993    -0.59390
O755        O  0.91549215  0.97730842  0.39786690    -0.52510
C756        C  0.92862617  0.95823718  0.37469185     0.73250
Zr757      Zr  0.98416477  0.03859195  0.34284282     2.54710
O758        O  0.95874253  0.02094758  0.29455668    -0.79960
O759        O  0.03346638  0.97092261  0.34692292    -0.93370
Zr760      Zr  0.89777844  0.14544103  0.34690507     2.64680
O761        O  0.85352424  0.11082401  0.30936555    -0.98330
O762        O  0.85556955  0.21675507  0.33607851    -0.80390
O763        O  0.96893850  0.11544898  0.33473909    -0.83750
O764        O  0.91075402  0.06619023  0.35750818    -2.18460
O765        O  0.99382396  0.00142999  0.45313946    -0.67140
O766        O  0.91774842  0.00450856  0.44683522    -0.51700
C767        C  0.95340249  0.98775017  0.45909892     0.71630
O768        O  0.98712864  0.24982044  0.40116977    -0.60050
O769        O  0.03012368  0.24025457  0.36193886    -0.52020
C770        C  0.00990530  0.26583206  0.38002148     0.73440
O771        O  0.88745145  0.15491315  0.44049024    -0.71440
O772        O  0.89088490  0.08519321  0.45894518    -0.50120
C773        C  0.89188237  0.12841402  0.46273911     0.74820
O774        O  0.10626115  0.08506436  0.41019814    -0.66770
O775        O  0.10530157  0.14004384  0.37330828    -0.53970
C776        C  0.12579389  0.11157541  0.39181549     0.73200
Zr777      Zr  0.03100566  0.06285087  0.42104352     2.77540
O778        O  0.05921672  0.08239157  0.46843441    -0.97520
O779        O  0.07760933  0.99352919  0.41950444    -0.78340
Zr780      Zr  0.95639748  0.17902220  0.41965086     2.70070
O781        O  0.00095580  0.19149240  0.46269158    -0.79590
O782        O  0.91915190  0.25082650  0.43129080    -0.98670
Zr783      Zr  0.02645453  0.15642084  0.35684055     2.21500
Zr784      Zr  0.90586276  0.05957102  0.40923634     2.11130
O785        O  0.96484217  0.09924997  0.43298031    -2.47360
O786        O  0.02579085  0.14426180  0.40806954    -0.79380
O787        O  0.97603027  0.02836502  0.39385557    -0.71580
O788        O  0.95490706  0.18751600  0.36897169    -2.32530
O789        O  0.03765627  0.07624253  0.37008424    -2.28740
O790        O  0.89639860  0.13999127  0.39766314    -0.73340
H791        H  0.88682655  0.04941807  0.34908603     0.78660
H792        H  0.94879572  0.21855041  0.36182806     0.79750
H793        H  0.96682724  0.09426970  0.45353382     0.81970
H794        H  0.06639408  0.06480671  0.36403815     0.79580
H795        H  0.82977606  0.20829715  0.32393181     0.42620
H796        H  0.88689983  0.24449540  0.43266577     0.41590
H797        H  0.02850376  0.17242680  0.46093534     0.41270
H798        H  0.03884739  0.06741699  0.48234757     0.39200
H799        H  0.09123200  0.98961529  0.43910627     0.42330
H800        H  0.06402821  0.98293589  0.34520780     0.37110
H801        H  0.92788079  0.03405769  0.29299226     0.43230
H802        H  0.83811035  0.08476488  0.31879251     0.39650
H803        H  0.08782672  0.06475764  0.47101092     0.44570
H804        H  0.02827845  0.95523524  0.32871686     0.43290
H805        H  0.82888676  0.13348297  0.30510077     0.43420
H806        H  0.92940302  0.25773471  0.45096709     0.43780
O807        O  0.06709643  0.60347565  0.28970558    -0.75090
O808        O  0.09051321  0.67219022  0.30523239    -0.54000
C809        C  0.08906850  0.64127036  0.28646684     0.78640
O810        O  0.86028615  0.61233526  0.34585922    -0.59690
O811        O  0.86674699  0.56648878  0.38660420    -0.52720
C812        C  0.84360230  0.58803695  0.36647614     0.70650
O813        O  0.97188578  0.68001137  0.29754267    -0.74250
O814        O  0.01782153  0.73452924  0.31031913    -0.54810
C815        C  0.98551215  0.72085089  0.29456595     0.76660
O816        O  0.00834867  0.48397898  0.34370977    -0.59390
O817        O  0.95663701  0.48419915  0.37938716    -0.52510
C818        C  0.98337641  0.46343010  0.36221511     0.73250
Zr819      Zr  0.02289826  0.56244477  0.32842192     2.54710
O820        O  0.97876870  0.54182235  0.28655757    -0.79960
O821        O  0.08582233  0.51283426  0.31616140    -0.93370
Zr822      Zr  0.92766182  0.65408058  0.33757557     2.64680
O823        O  0.88021662  0.65961821  0.29419530    -0.98330
O824        O  0.88465071  0.72427385  0.34519383    -0.80390
O825        O  0.00128405  0.63919021  0.32206635    -0.83750
O826        O  0.94763327  0.57546156  0.34467532    -2.18460
O827        O  0.03459714  0.51933919  0.44279157    -0.67140
O828        O  0.96253746  0.50300201  0.43039979    -0.51700
C829        C  0.99737343  0.49642847  0.44631519     0.71630
O830        O  0.99868902  0.76308328  0.40048827    -0.60050
O831        O  0.04614628  0.76441995  0.36262865    -0.52020
C832        C  0.02113004  0.78419907  0.38109431     0.73440
O833        O  0.91299159  0.65123984  0.43224160    -0.71440
O834        O  0.92761617  0.58076394  0.44697395    -0.50120
C835        C  0.92130973  0.62282863  0.45310945     0.74820
O836        O  0.13711511  0.61996103  0.39854816    -0.66770
O837        O  0.12953840  0.67911372  0.36419614    -0.53970
C838        C  0.15253043  0.65135545  0.38147900     0.73200
Zr839      Zr  0.06754218  0.58281455  0.40856763     2.77540
O840        O  0.10058315  0.59833527  0.45541526    -0.97520
O841        O  0.11922986  0.51836091  0.40270763    -0.78340
Zr842      Zr  0.97833784  0.68600615  0.41328701     2.70070
O843        O  0.01941730  0.69373669  0.45845142    -0.79590
O844        O  0.93373019  0.75135598  0.42855971    -0.98670
Zr845      Zr  0.05109963  0.68378635  0.34917431     2.21500
Zr846      Zr  0.94644193  0.56266485  0.39624190     2.11130
O847        O  0.99809786  0.60722595  0.42294942    -2.47360
O848        O  0.05161571  0.66448209  0.39997901    -0.79380
O849        O  0.01879037  0.54417624  0.37905499    -0.71580
O850        O  0.97646041  0.70107489  0.36299362    -2.32530
O851        O  0.07153131  0.60373829  0.35761923    -2.28740
O852        O  0.92540961  0.64156811  0.38809140    -0.73340
H853        H  0.92690087  0.55606565  0.33508013     0.78660
H854        H  0.96699400  0.73204425  0.35746076     0.79750
H855        H  0.00083934  0.60076341  0.44339177     0.81970
H856        H  0.10132537  0.59765440  0.35079671     0.79580
H857        H  0.86071955  0.71458625  0.35846768     0.42620
H858        H  0.90261963  0.74089051  0.43014149     0.41590
H859        H  0.02845821  0.72612605  0.45798300     0.41270
H860        H  0.10137792  0.63218650  0.45554572     0.39200
H861        H  0.12229067  0.51672560  0.38154379     0.42330
H862        H  0.11257690  0.53189470  0.31792111     0.37110
H863        H  0.96515985  0.57123585  0.27888563     0.43230
H864        H  0.87521771  0.62753989  0.28916984     0.39650
H865        H  0.07746752  0.58991539  0.46958880     0.44570
H866        H  0.08214875  0.50873568  0.29517597     0.43290
H867        H  0.85072437  0.67116959  0.30051800     0.43420
H868        H  0.94384057  0.75701905  0.44847249     0.43780
O869        O  0.54052839  0.07578278  0.29513088    -0.75090
O870        O  0.55195723  0.14941023  0.30795711    -0.54000
C871        C  0.55783364  0.11633726  0.29126515     0.78640
O872        O  0.32768110  0.06196939  0.35451999    -0.59690
O873        O  0.33596416  0.03455218  0.40010109    -0.52720
C874        C  0.31143153  0.05266772  0.37913892     0.70650
O875        O  0.40253733  0.18077215  0.31470503    -0.74250
O876        O  0.47157551  0.16773368  0.30044931    -0.54810
C877        C  0.42926884  0.17386394  0.29445719     0.76660
O878        O  0.48111435  0.95302129  0.34624863    -0.59390
O879        O  0.43650820  0.94644529  0.38592609    -0.52510
C880        C  0.46168465  0.92928402  0.36606001     0.73250
Zr881      Zr  0.49186830  0.03194422  0.33132594     2.54710
O882        O  0.44842785  0.01218650  0.28895689    -0.79960
O883        O  0.55499957  0.98519623  0.31598246    -0.93370
Zr884      Zr  0.38687276  0.11375181  0.34425084     2.64680
O885        O  0.35529991  0.08617399  0.29989663    -0.98330
O886        O  0.32216464  0.16477687  0.34937347    -0.80390
O887        O  0.46002663  0.10457773  0.32579707    -0.83750
O888        O  0.41767277  0.03835164  0.35116049    -2.18460
O889        O  0.51250851  0.99435826  0.44671690    -0.67140
O890        O  0.44295225  0.96799652  0.43607716    -0.51700
C891        C  0.47840598  0.96754599  0.45162241     0.71630
O892        O  0.45610152  0.23042785  0.40190669    -0.60050
O893        O  0.50063425  0.23422247  0.36246602    -0.52020
C894        C  0.47706067  0.25253015  0.38222115     0.73440
O895        O  0.38524303  0.11492629  0.44259079    -0.71440
O896        O  0.40954737  0.04604799  0.45511763    -0.50120
C897        C  0.40052261  0.08742183  0.46228886     0.74820
O898        O  0.59145543  0.11778789  0.40770549    -0.66770
O899        O  0.58993567  0.15169534  0.36285930    -0.53970
C900        C  0.61132868  0.13455358  0.38556401     0.73200
Zr901      Zr  0.53955164  0.05576746  0.40913865     2.77540
O902        O  0.58755035  0.05486465  0.45215903    -0.97520
O903        O  0.59537688  0.00200913  0.39183763    -0.78340
Zr904      Zr  0.44302198  0.15226496  0.41673439     2.70070
O905        O  0.49014635  0.16987852  0.45781626    -0.79590
O906        O  0.39429373  0.21300138  0.43403078    -0.98670
Zr907      Zr  0.50906129  0.15400132  0.34949809     2.21500
Zr908      Zr  0.41887660  0.02581059  0.40293366     2.11130
O909        O  0.47041719  0.07540948  0.42633720    -2.47360
O910        O  0.51534584  0.13510593  0.40016730    -0.79380
O911        O  0.49083016  0.01330924  0.38218193    -0.71580
O912        O  0.43504419  0.16577578  0.36665909    -2.32530
O913        O  0.53934558  0.07700473  0.35845131    -2.28740
O914        O  0.39090609  0.10291693  0.39490251    -0.73340
H915        H  0.39866057  0.01625774  0.34254020     0.78660
H916        H  0.42261356  0.19605538  0.36220265     0.79750
H917        H  0.47775441  0.07104742  0.44654306     0.81970
H918        H  0.56916733  0.07341086  0.35104656     0.79580
H919        H  0.31730649  0.16471205  0.37044656     0.42620
H920        H  0.36426014  0.19988635  0.43610492     0.41590
H921        H  0.51772288  0.15081676  0.45604426     0.41270
H922        H  0.56693884  0.06055727  0.46817721     0.39200
H923        H  0.58107804  0.97183347  0.39368310     0.42330
H924        H  0.56666036  0.96883978  0.33382434     0.37110
H925        H  0.43311499  0.98375784  0.29498621     0.43230
H926        H  0.35760614  0.05231973  0.30170180     0.39650
H927        H  0.59770042  0.02249536  0.45537120     0.44570
H928        H  0.54155052  0.96111013  0.30449488     0.43290
H929        H  0.32286184  0.09352028  0.30055749     0.43420
H930        H  0.40487727  0.21830464  0.45390120     0.43780
O931        O  0.56373377  0.53518278  0.29660866    -0.75090
O932        O  0.59787666  0.60376447  0.30147308    -0.54000
C933        C  0.59295820  0.56528333  0.28937854     0.78640
O934        O  0.35425606  0.62407249  0.34971982    -0.59690
O935        O  0.35546948  0.57558909  0.38978654    -0.52720
C936        C  0.33566303  0.60330966  0.37109333     0.70650
O937        O  0.45822364  0.66520015  0.28504999    -0.74250
O938        O  0.53132150  0.64380129  0.28565863    -0.54810
C939        C  0.49330508  0.65091792  0.27237259     0.76660
O940        O  0.48044814  0.45656253  0.36046296    -0.59390
O941        O  0.42512292  0.47363502  0.39176048    -0.52510
C942        C  0.45149807  0.44530788  0.37917392     0.73250
Zr943      Zr  0.50692693  0.52137252  0.33407284     2.54710
O944        O  0.46147446  0.48799323  0.29658149    -0.79960
O945        O  0.55806136  0.45542702  0.33132824    -0.93370
Zr946      Zr  0.42705227  0.63107147  0.32892824     2.64680
O947        O  0.38699976  0.59364595  0.29067168    -0.98330
O948        O  0.38692331  0.70335881  0.31768440    -0.80390
O949        O  0.49631872  0.59718149  0.31825796    -0.83750
O950        O  0.43522561  0.55341409  0.34632019    -2.18460
O951        O  0.52273618  0.49845003  0.44186845    -0.67140
O952        O  0.44665279  0.50425118  0.43695753    -0.51700
C953        C  0.48210141  0.48659840  0.44882597     0.71630
O954        O  0.54602827  0.72306821  0.38701568    -0.60050
O955        O  0.55328698  0.72626525  0.33968725    -0.52020
C956        C  0.54441249  0.74646128  0.36326253     0.73440
O957        O  0.41738321  0.65821947  0.42615246    -0.71440
O958        O  0.41956138  0.58842010  0.44574851    -0.50120
C959        C  0.42028736  0.63187941  0.44863198     0.74820
O960        O  0.63319791  0.58060796  0.39267054    -0.66770
O961        O  0.63081555  0.63422844  0.35505377    -0.53970
C962        C  0.65181858  0.60736214  0.37384521     0.73200
Zr963      Zr  0.55919165  0.55832040  0.40798555     2.77540
O964        O  0.58662264  0.58671428  0.45345011    -0.97520
O965        O  0.60961619  0.49160456  0.41236397    -0.78340
Zr966      Zr  0.48479297  0.67511613  0.40060764     2.70070
O967        O  0.51177723  0.70112046  0.44673763    -0.79590
O968        O  0.44515688  0.74900165  0.39735422    -0.98670
Zr969      Zr  0.55399991  0.64097917  0.33743459     2.21500
Zr970      Zr  0.43398999  0.55652460  0.39806261     2.11130
O971        O  0.49383726  0.59788073  0.41947225    -2.47360
O972        O  0.55278033  0.63657971  0.38935593    -0.79380
O973        O  0.50228136  0.52041222  0.38491609    -0.71580
O974        O  0.48341022  0.67630432  0.34905363    -2.32530
O975        O  0.56334576  0.56290116  0.35645396    -2.28740
O976        O  0.42581756  0.63384763  0.37982460    -0.73340
H977        H  0.41092902  0.53524214  0.33959350     0.78660
H978        H  0.47765289  0.70676760  0.34070078     0.79750
H979        H  0.49576923  0.59664726  0.44021218     0.81970
H980        H  0.59167269  0.54992309  0.35074324     0.79580
H981        H  0.38750782  0.71945238  0.33602949     0.42620
H982        H  0.41477311  0.74210856  0.39020113     0.41590
H983        H  0.53899616  0.68194949  0.45123642     0.41270
H984        H  0.56845078  0.57120146  0.46843580     0.39200
H985        H  0.60370492  0.47492015  0.39462332     0.42330
H986        H  0.58841246  0.46748141  0.33417067     0.37110
H987        H  0.43393305  0.50746089  0.29461118     0.43230
H988        H  0.36060165  0.58010920  0.30003649     0.39650
H989        H  0.61689743  0.57248505  0.45616583     0.44570
H990        H  0.55680292  0.44698926  0.31088785     0.43290
H991        H  0.37449568  0.61914786  0.27797976     0.43420
H992        H  0.44092682  0.75705633  0.41766251     0.43780
C993        C  0.50214010  0.81454362  0.33896710    -0.21100
C994        C  0.52437664  0.79435170  0.36350862    -0.09140
C995        C  0.52101962  0.81743304  0.38969912     0.29710
C996        C  0.49641107  0.85902027  0.39108633    -0.21100
C997        C  0.47477697  0.87943709  0.36650152    -0.09160
C998        C  0.47805370  0.85651859  0.34033743     0.29720
F999        F  0.45867816  0.87545358  0.31577723    -0.19680
H1000       H  0.50289687  0.79755534  0.31869007     0.18080
H1001       H  0.49644641  0.87669372  0.41110835     0.18090
F1002       F  0.54196568  0.80005811  0.41414730    -0.19670
C1003       C  0.41836185  0.36814049  0.38042932    -0.21100
C1004       C  0.45384746  0.39630442  0.38698569    -0.09140
C1005       C  0.49696073  0.37657731  0.39259738     0.29710
C1006       C  0.50494257  0.32986211  0.38997750    -0.21100
C1007       C  0.46999761  0.30209181  0.38215779    -0.09160
C1008       C  0.42629718  0.32102625  0.37832517     0.29720
F1009       F  0.39168503  0.29402083  0.37153837    -0.19680
H1010       H  0.38544287  0.38284889  0.37519367     0.18080
H1011       H  0.53830978  0.31539515  0.39401801     0.18090
F1012       F  0.53217802  0.40339409  0.39847659    -0.19670
C1013       C  0.76952917  0.61442599  0.34612826    -0.21100
C1014       C  0.79423371  0.58878733  0.36766385    -0.09140
C1015       C  0.77168156  0.57055825  0.39176642     0.29710
C1016       C  0.72562407  0.57808523  0.39408238    -0.21100
C1017       C  0.70113554  0.60416507  0.37263412    -0.09160
C1018       C  0.72382706  0.62257829  0.34865779     0.29720
F1019       F  0.70208507  0.64800617  0.32728606    -0.19680
H1020       H  0.78568703  0.62944081  0.32737637     0.18080
H1021       H  0.70913823  0.56327737  0.41277495     0.18090
F1022       F  0.79398133  0.54638694  0.41344143    -0.19670
C1023       C  0.27388989  0.63348343  0.40015656    -0.21100
C1024       C  0.28853761  0.61479668  0.37450622    -0.09140
C1025       C  0.25935128  0.61356346  0.35062558     0.29710
C1026       C  0.21562860  0.62997159  0.35260735    -0.21100
C1027       C  0.20065124  0.64846169  0.37814020    -0.09160
C1028       C  0.22986891  0.65012141  0.40204954     0.29720
F1029       F  0.21538484  0.66658289  0.42725217    -0.19680
H1030       H  0.29666033  0.63568712  0.41845654     0.18080
H1031       H  0.19240141  0.62505057  0.33495137     0.18090
F1032       F  0.27279968  0.59499917  0.32577209    -0.19670
C1033       C  0.73402763  0.14839369  0.36683155    -0.21100
C1034       C  0.75554609  0.11457299  0.38543903    -0.09140
C1035       C  0.72912149  0.08952841  0.40493951     0.29710
C1036       C  0.68271783  0.09767669  0.40535606    -0.21100
C1037       C  0.66121038  0.13085398  0.38637681    -0.09160
C1038       C  0.68765326  0.15651581  0.36728323     0.29720
F1039       F  0.66893479  0.18974487  0.34921583    -0.19680
H1040       H  0.75307679  0.16878168  0.35157577     0.18080
H1041       H  0.66341303  0.07687711  0.42022943     0.18090
F1042       F  0.74784083  0.05713116  0.42360644    -0.19670
C1043       C  0.24408891  0.06649496  0.41030993    -0.21100
C1044       C  0.26334176  0.06672473  0.38288236    -0.09140
C1045       C  0.23787184  0.08678286  0.35921550     0.29710
C1046       C  0.19495313  0.10544392  0.36299220    -0.21100
C1047       C  0.17508059  0.10350732  0.39007018    -0.09160
C1048       C  0.20042833  0.08424041  0.41388977     0.29720
F1049       F  0.18278915  0.08207531  0.44068283    -0.19680
H1050       H  0.26285782  0.05274971  0.42906409     0.18080
H1051       H  0.17624394  0.11928901  0.34424184     0.18090
F1052       F  0.25390784  0.08818643  0.33201313    -0.19670
C1053       C  0.98616172  0.84842618  0.35207232    -0.21100
C1054       C  0.00902576  0.83335581  0.37758263    -0.09140
C1055       C  0.00435281  0.85926294  0.40225340     0.29710
C1056       C  0.97634035  0.89849690  0.40159820    -0.21100
C1057       C  0.95209140  0.91270148  0.37642413    -0.09160
C1058       C  0.95786274  0.88743889  0.35144962     0.29720
F1059       F  0.93525714  0.89978353  0.32654623    -0.19680
H1060       H  0.98739888  0.82791414  0.33317971     0.18080
H1061       H  0.97402015  0.91816072  0.42069752     0.18090
F1062       F  0.02527576  0.84505273  0.42740416    -0.19670
C1063       C  0.97305965  0.34059399  0.39065633    -0.21100
C1064       C  0.00618901  0.31677857  0.37537886    -0.09140
C1065       C  0.03050084  0.34170607  0.35461638     0.29710
C1066       C  0.02203534  0.38907268  0.34980054    -0.21100
C1067       C  0.98877686  0.41252795  0.36527179    -0.09160
C1068       C  0.96414736  0.38725362  0.38561267     0.29720
F1069       F  0.93131960  0.40733003  0.40092138    -0.19680
H1070       H  0.95274285  0.32304349  0.40647879     0.18080
H1071       H  0.04207790  0.40747336  0.33412444     0.18090
F1072       F  0.06252280  0.32066720  0.33917337    -0.19670
C1073       C  0.41695981  0.92217704  0.51499023    -0.21100
C1074       C  0.42867974  0.87542300  0.51763205    -0.09140
C1075       C  0.46245030  0.85953516  0.49910261     0.29710
C1076       C  0.48284637  0.89014967  0.47885247    -0.21100
C1077       C  0.47310728  0.93773840  0.47830948    -0.09160
C1078       C  0.44063600  0.95285931  0.49758195     0.29720
F1079       F  0.43069736  0.99795406  0.49940047    -0.19680
H1080       H  0.39048978  0.93589613  0.52797959     0.18080
H1081       H  0.50614406  0.87662043  0.46358562     0.18090
F1082       F  0.47743124  0.81545679  0.50117144    -0.19670
C1083       C  0.44069991  0.72154051  0.50281053    -0.21100
C1084       C  0.47759173  0.70361575  0.51936697    -0.09140
C1085       C  0.49304102  0.65888989  0.51410340     0.29710
C1086       C  0.47168774  0.63326639  0.49285547    -0.21100
C1087       C  0.43551706  0.65243181  0.47587174    -0.09160
C1088       C  0.42053054  0.69700826  0.48126841     0.29720
F1089       F  0.38585670  0.71702215  0.46567436    -0.19680
H1090       H  0.42561641  0.75427673  0.50743359     0.18080
H1091       H  0.48447203  0.59912118  0.48909607     0.18090
F1092       F  0.52778513  0.63958029  0.52988821    -0.19670
C1093       C  0.46834827  0.37306985  0.49343991    -0.21100
C1094       C  0.43185148  0.38506198  0.51087470    -0.09140
C1095       C  0.41344882  0.42962758  0.50700850     0.29710
C1096       C  0.43317632  0.46220762  0.48874541    -0.21100
C1097       C  0.47095095  0.45169582  0.47223013    -0.09160
C1098       C  0.48772283  0.40604020  0.47420136     0.29720
F1099       F  0.52286845  0.39340075  0.45801658    -0.19680
H1100       H  0.48360382  0.33911255  0.49590133     0.18080
H1101       H  0.41816321  0.49641315  0.48726592     0.18090
F1102       F  0.37793342  0.44293016  0.52279139    -0.19670
C1103       C  0.42021870  0.18193437  0.51323307    -0.21100
C1104       C  0.46432258  0.17454548  0.52454577    -0.09140
C1105       C  0.48526330  0.13202237  0.51873240     0.29710
C1106       C  0.46326963  0.10006225  0.50096502    -0.21100
C1107       C  0.41960888  0.10948740  0.48888030    -0.09160
C1108       C  0.39808107  0.15001220  0.49699426     0.29720
F1109       F  0.35552761  0.16038765  0.48769950    -0.19680
H1110       H  0.40170657  0.21334062  0.51712145     0.18080
H1111       H  0.48149627  0.06925995  0.49561810     0.18090
F1112       F  0.52681126  0.12155991  0.52966210    -0.19670
C1113       C  0.51704074  0.55977081  0.59611276    -0.21100
C1114       C  0.53537988  0.53293533  0.61991770    -0.09140
C1115       C  0.53112262  0.55042892  0.64752586     0.29710
C1116       C  0.50955393  0.59310802  0.65094723    -0.21100
C1117       C  0.49078616  0.61943396  0.62713361    -0.09160
C1118       C  0.49432846  0.60167716  0.59970676     0.29720
F1119       F  0.47665360  0.62523296  0.57621907    -0.19680
H1120       H  0.51858352  0.54738274  0.57447124     0.18080
H1121       H  0.50790824  0.60593453  0.67247792     0.18090
F1122       F  0.54602683  0.52566447  0.67139572    -0.19670
C1123       C  0.49404958  0.05689455  0.65489544    -0.21100
C1124       C  0.50952775  0.04020603  0.62890977    -0.09140
C1125       C  0.50611069  0.06858463  0.60361582     0.29710
C1126       C  0.48621615  0.11217636  0.60417752    -0.21100
C1127       C  0.46958501  0.12870148  0.62995619    -0.09160
C1128       C  0.47420949  0.10071374  0.65550167     0.29720
F1129       F  0.45883734  0.11531119  0.68098097    -0.19680
H1130       H  0.49481091  0.03497391  0.67438600     0.18080
H1131       H  0.48472426  0.13335221  0.58446410     0.18090
F1132       F  0.52068574  0.05334189  0.57808849    -0.19670
C1133       C  0.95137287  0.87318438  0.50383690    -0.21100
C1134       C  0.91161580  0.87943052  0.51948574    -0.09140
C1135       C  0.88664688  0.92026105  0.51413621     0.29710
C1136       C  0.90245936  0.95513011  0.49585051    -0.21100
C1137       C  0.94336997  0.95070463  0.48136202    -0.09160
C1138       C  0.96748553  0.90873975  0.48519750     0.29720
F1139       F  0.00695771  0.90253501  0.47178807    -0.19680
H1140       H  0.97163620  0.84220676  0.50743738     0.18080
H1141       H  0.88230872  0.98643764  0.49321542     0.18090
F1142       F  0.84802548  0.92789042  0.52837801    -0.19670
C1143       C  0.99386365  0.65461634  0.51889140    -0.21100
C1144       C  0.97793503  0.69983889  0.52212799    -0.09140
C1145       C  0.94087187  0.71532691  0.50490978     0.29710
C1146       C  0.91967463  0.68679866  0.48598148    -0.21100
C1147       C  0.93671469  0.64285406  0.48090529    -0.09160
C1148       C  0.97431044  0.62665661  0.49802891     0.29720
F1149       F  0.99364773  0.58509592  0.49411705    -0.19680
H1150       H  0.02117958  0.64082956  0.53252364     0.18080
H1151       H  0.89063852  0.70041925  0.47388888     0.18090
F1152       F  0.92387245  0.75843698  0.50699687    -0.19670
C1153       C  0.75571945  0.82906360  0.59203155    -0.21100
C1154       C  0.77584721  0.80972559  0.61745041    -0.09140
C1155       C  0.75052156  0.80748013  0.64280051     0.29710
C1156       C  0.70665347  0.82538175  0.64292860    -0.21100
C1157       C  0.68672192  0.84584579  0.61776123    -0.09160
C1158       C  0.71147673  0.84662340  0.59204993     0.29720
F1159       F  0.69352783  0.86594260  0.56716835    -0.19680
H1160       H  0.77513372  0.83312768  0.57260808     0.18080
H1161       H  0.68804229  0.82274484  0.66274848     0.18090
F1162       F  0.76925782  0.78990624  0.66792962    -0.19670
C1163       C  0.21018475  0.82393809  0.64455460    -0.21100
C1164       C  0.18963418  0.85434006  0.62366814    -0.09140
C1165       C  0.21473516  0.86753950  0.59930125     0.29710
C1166       C  0.25923755  0.85157143  0.59636433    -0.21100
C1167       C  0.27950631  0.82056644  0.61701465    -0.09160
C1168       C  0.25446369  0.80741988  0.64137711     0.29720
F1169       F  0.27339033  0.77941547  0.66258693    -0.19680
H1170       H  0.19121636  0.81140292  0.66283735     0.18080
H1171       H  0.27837697  0.86438614  0.57822781     0.18090
F1172       F  0.19587492  0.89559278  0.57808991    -0.19670
C1173       C  0.93421425  0.44706007  0.50977479    -0.21100
C1174       C  0.94657891  0.40039659  0.51200151    -0.09140
C1175       C  0.97861344  0.38484866  0.49218940     0.29710
C1176       C  0.99867382  0.41627150  0.47199471    -0.21100
C1177       C  0.98819011  0.46390041  0.47163233    -0.09160
C1178       C  0.95445041  0.47784272  0.49052746     0.29720
F1179       F  0.93880304  0.52163135  0.48969587    -0.19680
H1180       H  0.90921578  0.46057420  0.52399368     0.18080
H1181       H  0.02176368  0.40327842  0.45640211     0.18090
F1182       F  0.99194031  0.34008740  0.49305476    -0.19670
C1183       C  0.95071705  0.12794770  0.50372688    -0.21100
C1184       C  0.91326071  0.14856836  0.48864600    -0.09140
C1185       C  0.90400000  0.19504946  0.49270338     0.29710
C1186       C  0.93374029  0.22140222  0.50788838    -0.21100
C1187       C  0.97197367  0.20201590  0.52246730    -0.09160
C1188       C  0.97975731  0.15432975  0.52055182     0.29720
F1189       F  0.01585201  0.13343193  0.53398026    -0.19680
H1190       H  0.95865298  0.09192178  0.50165717     0.18080
H1191       H  0.92484716  0.25724508  0.51012190     0.18090
F1192       F  0.86605612  0.21556954  0.48127767    -0.19670
C1193       C  0.01690832  0.55150686  0.65115380    -0.21100
C1194       C  0.03465096  0.53751272  0.62499439    -0.09140
C1195       C  0.02653333  0.56611224  0.59989528     0.29710
C1196       C  0.00197673  0.60756699  0.60123986    -0.21100
C1197       C  0.98520939  0.62184731  0.62750315    -0.09160
C1198       C  0.99268637  0.59304327  0.65245436     0.29720
F1199       F  0.97769586  0.60595208  0.67842404    -0.19680
H1200       H  0.02108468  0.52988811  0.67065904     0.18080
H1201       H  0.99837397  0.62990366  0.58205995     0.18090
F1202       F  0.04285213  0.55443620  0.57401453    -0.19670
C1203       C  0.01095355  0.07461224  0.60836359    -0.21100
C1204       C  0.00081165  0.04439700  0.63157178    -0.09140
C1205       C  0.97516524  0.06093738  0.65420313     0.29710
C1206       C  0.95941396  0.10668289  0.65324897    -0.21100
C1207       C  0.96887840  0.13681182  0.62970763    -0.09160
C1208       C  0.99621524  0.12053574  0.60784003     0.29720
F1209       F  0.01142536  0.14991331  0.58712517    -0.19680
H1210       H  0.03033215  0.06251255  0.59056706     0.18080
H1211       H  0.93998721  0.11871396  0.67103412     0.18090
F1212       F  0.96344913  0.03225977  0.67649798    -0.19670
C1213       C  0.77602093  0.29777721  0.60596662    -0.21100
C1214       C  0.79853781  0.33828301  0.61066417    -0.09140
C1215       C  0.77431257  0.37982737  0.61267109     0.29710
C1216       C  0.72783505  0.38021887  0.61108526    -0.21100
C1217       C  0.70535999  0.33936498  0.60729512    -0.09160
C1218       C  0.72973824  0.29812188  0.60441973     0.29720
F1219       F  0.70892638  0.25763574  0.60197298    -0.19680
H1220       H  0.79418169  0.26538929  0.60468386     0.18080
H1221       H  0.70938226  0.41224825  0.61318437     0.18090
F1222       F  0.79544617  0.41985620  0.61618770    -0.19670
C1223       C  0.27435445  0.33769111  0.59006857    -0.21100
C1224       C  0.29655289  0.32896515  0.61664025    -0.09140
C1225       C  0.27374856  0.33339888  0.64255112     0.29710
C1226       C  0.22898880  0.34649446  0.64185275    -0.21100
C1227       C  0.20628140  0.35431234  0.61547134    -0.09160
C1228       C  0.22911797  0.35027208  0.58943257     0.29720
F1229       F  0.20750680  0.35793727  0.56360291    -0.19680
H1230       H  0.29222529  0.33571909  0.57000847     0.18080
H1231       H  0.21133653  0.34791152  0.66186902     0.18090
F1232       F  0.29470967  0.32425971  0.66848423    -0.19670
C1233       C  0.64931356  0.83205390  0.78312253    -0.21100
C1234       C  0.68600343  0.86125557  0.77828946    -0.09140
C1235       C  0.69386652  0.87681845  0.74989871     0.29710
C1236       C  0.66564395  0.86379613  0.72725929    -0.21100
C1237       C  0.62883663  0.83480160  0.73219144    -0.09160
C1238       C  0.62102291  0.81918478  0.76054430     0.29720
F1239       F  0.58545120  0.79266610  0.76660481    -0.19680
H1240       H  0.64341435  0.81759288  0.80458853     0.18080
H1241       H  0.67238230  0.87688828  0.70557753     0.18090
F1242       F  0.73010716  0.90234732  0.74379182    -0.19670
C1243       C  0.85689483  0.84772428  0.75719526    -0.21100
C1244       C  0.87313647  0.80563469  0.76972329    -0.09140
C1245       C  0.91800004  0.79276862  0.76366454     0.29710
C1246       C  0.94612758  0.82208119  0.74740814    -0.21100
C1247       C  0.93046910  0.86505425  0.73593779    -0.09160
C1248       C  0.88516738  0.87742823  0.74144627     0.29720
F1249       F  0.86782340  0.91859825  0.73146069    -0.19680
H1250       H  0.82273689  0.85898308  0.76067016     0.18080
H1251       H  0.97981585  0.81032884  0.74293496     0.18090
F1252       F  0.93479430  0.75127059  0.77346537    -0.19670
C1253       C  0.68732753  0.24200991  0.75920255    -0.21100
C1254       C  0.72500681  0.27020766  0.76036641    -0.09140
C1255       C  0.72872143  0.30442186  0.73818281     0.29710
C1256       C  0.69407317  0.31220780  0.71710241    -0.21100
C1257       C  0.65490309  0.28580274  0.71717740    -0.09160
C1258       C  0.65303407  0.24941197  0.73813691     0.29720
F1259       F  0.61678474  0.22238795  0.73953000    -0.19680
H1260       H  0.68295493  0.21552459  0.77595413     0.18080
H1261       H  0.69742123  0.34002303  0.70111899     0.18090
F1262       F  0.76384157  0.33295596  0.73824326    -0.19670
C1263       C  0.94605547  0.36920366  0.77275137    -0.21100
C1264       C  0.91167723  0.40170539  0.77777259    -0.09140
C1265       C  0.91240043  0.44448719  0.76255124     0.29710
C1266       C  0.94430561  0.45261805  0.74124067    -0.21100
C1267       C  0.97669586  0.41885228  0.73499144    -0.09160
C1268       C  0.97879422  0.37799305  0.75213493     0.29720
F1269       F  0.00897246  0.34417408  0.74657027    -0.19680
H1270       H  0.94682530  0.33598574  0.78411693     0.18080
H1271       H  0.94153739  0.48409694  0.72798704     0.18090
F1272       F  0.88026835  0.47714521  0.76646898    -0.19670
C1273       C  0.75889626  0.61594001  0.90472059    -0.21100
C1274       C  0.76050261  0.64462108  0.87953444    -0.09140
C1275       C  0.74163114  0.62894428  0.85376296     0.29710
C1276       C  0.72354875  0.58546623  0.85303670    -0.21100
C1277       C  0.72396420  0.55576434  0.87770210    -0.09160
C1278       C  0.74066797  0.57197394  0.90390175     0.29720
F1279       F  0.74242681  0.54426726  0.92819907    -0.19680
H1280       H  0.77244545  0.62721729  0.92494680     0.18080
H1281       H  0.71154117  0.57389659  0.83247908     0.18090
F1282       F  0.74278247  0.65449699  0.82860054    -0.19670
C1283       C  0.86526634  0.12826964  0.84803341    -0.21100
C1284       C  0.85191188  0.15048001  0.87281096    -0.09140
C1285       C  0.85436180  0.12561188  0.89969393     0.29710
C1286       C  0.86611278  0.07878438  0.90120878    -0.21100
C1287       C  0.87497496  0.05567061  0.87600915    -0.09160
C1288       C  0.87621169  0.08125470  0.84951559     0.29720
F1289       F  0.88470606  0.05995935  0.82468758    -0.19680
H1290       H  0.86404548  0.14645823  0.82714822     0.18080
H1291       H  0.86428412  0.05979659  0.92175673     0.18090
F1292       F  0.84322592  0.14595949  0.92441952    -0.19670
C1293       C  0.20182843  0.81766774  0.74932229    -0.21100
C1294       C  0.20306923  0.85723964  0.76597003    -0.09140
C1295       C  0.16562078  0.88707600  0.76464319     0.29710
C1296       C  0.12776482  0.87672987  0.74794227    -0.21100
C1297       C  0.12614800  0.83659699  0.73187619    -0.09160
C1298       C  0.16402687  0.80738430  0.73259321     0.29720
F1299       F  0.16524180  0.76988869  0.71634589    -0.19680
H1300       H  0.23009190  0.79366840  0.74995212     0.18080
H1301       H  0.09951840  0.90074633  0.74718394     0.18090
F1302       F  0.16464602  0.92499352  0.78051262    -0.19670
C1303       C  0.37043097  0.84215656  0.75607814    -0.21100
C1304       C  0.38924144  0.80172386  0.76933000    -0.09140
C1305       C  0.43497178  0.79176009  0.76401642     0.29710
C1306       C  0.46086475  0.82201032  0.74685726    -0.21100
C1307       C  0.44242075  0.86368896  0.73497435    -0.09160
C1308       C  0.39684038  0.87353936  0.74053712     0.29720
F1309       F  0.37734398  0.91380137  0.73072442    -0.19680
H1310       H  0.33553399  0.85115656  0.75910515     0.18080
H1311       H  0.49524846  0.81242293  0.74258478     0.18090
F1312       F  0.45516583  0.75335449  0.77623515    -0.19670
C1313       C  0.60132931  0.82533453  0.90844515    -0.21100
C1314       C  0.62672542  0.83653827  0.88386179    -0.09140
C1315       C  0.60660247  0.86467107  0.86172158     0.29710
C1316       C  0.56195937  0.87981716  0.86369499    -0.21100
C1317       C  0.53633244  0.86842226  0.88812197    -0.09160
C1318       C  0.55659282  0.84082023  0.91055226     0.29720
F1319       F  0.53281397  0.82745018  0.93399268    -0.19680
H1320       H  0.61657018  0.80514989  0.92634258     0.18080
H1321       H  0.54729003  0.90082757  0.84596305     0.18090
F1322       F  0.63102620  0.88049008  0.83919461    -0.19670
C1323       C  0.10528254  0.82225606  0.89860038    -0.21100
C1324       C  0.12976702  0.83075887  0.87323645    -0.09140
C1325       C  0.10928195  0.85727746  0.85047992     0.29710
C1326       C  0.06540745  0.87460895  0.85312365    -0.21100
C1327       C  0.04137757  0.86662099  0.87868690    -0.09160
C1328       C  0.06175269  0.83996530  0.90135588     0.29720
F1329       F  0.03855810  0.82859128  0.92544928    -0.19680
H1330       H  0.12038373  0.80241582  0.91670075     0.18080
H1331       H  0.04957963  0.89340103  0.83485729     0.18090
F1332       F  0.13217764  0.86797786  0.82623296    -0.19670
C1333       C  0.18220418  0.24003160  0.76099465    -0.21100
C1334       C  0.22084242  0.26656472  0.76145708    -0.09140
C1335       C  0.22470727  0.30238444  0.74052629     0.29710
C1336       C  0.18868432  0.31421055  0.72163482    -0.21100
C1337       C  0.14902937  0.28904857  0.72193986    -0.09160
C1338       C  0.14690845  0.25065183  0.74133512     0.29720
F1339       F  0.10963375  0.22510434  0.74276098    -0.19680
H1340       H  0.17813979  0.21262112  0.77719120     0.18080
H1341       H  0.19127406  0.34440498  0.70755451     0.18090
F1342       F  0.26122636  0.32907924  0.74028604    -0.19670
C1343       C  0.44499867  0.35785434  0.76424195    -0.21100
C1344       C  0.41172612  0.39152543  0.76939517    -0.09140
C1345       C  0.41529988  0.43511197  0.75548647     0.29710
C1346       C  0.44900275  0.44328748  0.73540903    -0.21100
C1347       C  0.48033591  0.40866711  0.72889486    -0.09160
C1348       C  0.47933674  0.36650057  0.74463515     0.29720
F1349       F  0.50837376  0.33186261  0.73873010    -0.19680
H1350       H  0.44402671  0.32425023  0.77502966     0.18080
H1351       H  0.44845854  0.47575989  0.72314492     0.18090
F1352       F  0.38461696  0.46905472  0.75972236    -0.19670
C1353       C  0.53191701  0.37973167  0.84632271    -0.21100
C1354       C  0.55904333  0.36548974  0.87003281    -0.09140
C1355       C  0.54360397  0.33327896  0.89060998     0.29710
C1356       C  0.50118824  0.31538703  0.88728912    -0.21100
C1357       C  0.47386756  0.32967550  0.86351108    -0.09160
C1358       C  0.48917553  0.36275398  0.84345357     0.29720
F1359       F  0.46139859  0.38180569  0.82273447    -0.19680
H1360       H  0.54405280  0.40380740  0.82998473     0.18080
H1361       H  0.48887972  0.29171861  0.90379925     0.18090
F1362       F  0.57034417  0.31769920  0.91311088    -0.19670
C1363       C  0.04279434  0.35833225  0.89839871    -0.21100
C1364       C  0.06144626  0.37495712  0.87255735    -0.09140
C1365       C  0.03448425  0.37832904  0.84728955     0.29710
C1366       C  0.99014830  0.36443846  0.84781355    -0.21100
C1367       C  0.97170834  0.34673360  0.87333912    -0.09160
C1368       C  0.99824644  0.34441838  0.89886107     0.29720
F1369       F  0.98128649  0.32789001  0.92411610    -0.19680
H1370       H  0.06331905  0.35398108  0.91786930     0.18080
H1371       H  0.96970412  0.36884501  0.82847728     0.18090
F1372       F  0.05139099  0.39444592  0.82191527    -0.19670
C1373       C  0.22342247  0.63585121  0.85967627    -0.21100
C1374       C  0.25841484  0.64744714  0.87859166    -0.09140
C1375       C  0.27755242  0.61322521  0.89762955     0.29710
C1376       C  0.26385217  0.56830540  0.89640708    -0.21100
C1377       C  0.23023672  0.55650377  0.87699245    -0.09160
C1378       C  0.20961158  0.59048121  0.85870928     0.29720
F1379       F  0.17844086  0.57927168  0.83877760    -0.19680
H1380       H  0.20800999  0.66148684  0.84482767     0.18080
H1381       H  0.28269108  0.54177343  0.90871405     0.18090
F1382       F  0.31223170  0.62197082  0.91568798    -0.19670
C1383       C  0.38907731  0.08146599  0.85200774    -0.21100
C1384       C  0.37302951  0.05320195  0.87463646    -0.09140
C1385       C  0.34542688  0.07252346  0.89515138     0.29710
C1386       C  0.33276005  0.11858365  0.89276232    -0.21100
C1387       C  0.34653212  0.14681439  0.86938711    -0.09160
C1388       C  0.37650442  0.12817793  0.84954526     0.29720
F1389       F  0.39181030  0.15417128  0.82701127    -0.19680
H1390       H  0.40921562  0.06679597  0.83538365     0.18080
H1391       H  0.30984024  0.13130093  0.90856124     0.18090
F1392       F  0.32552109  0.04554892  0.91528490    -0.19670
C1393       C  0.79017518  0.49272105  0.98842686    -0.21100
C1394       C  0.75550132  0.46271719  0.98379512    -0.09140
C1395       C  0.71749483  0.46471936  0.00156011     0.29710
C1396       C  0.71490799  0.49614415  0.02362617    -0.21100
C1397       C  0.74912566  0.52739009  0.02745557    -0.09160
C1398       C  0.78700294  0.52488807  0.00957506     0.29720
F1399       F  0.82180262  0.55324011  0.01255337    -0.19680
H1400       H  0.81927537  0.49257935  0.97480825     0.18080
H1401       H  0.68569054  0.49692630  0.03710062     0.18090
F1402       F  0.68259328  0.43678856  0.99743520    -0.19670
C1403       C  0.93834498  0.74969086  0.03112906    -0.21100
C1404       C  0.91008456  0.77343636  0.04945042    -0.09140
C1405       C  0.89994416  0.82006442  0.04317868     0.29710
C1406       C  0.91152989  0.84003552  0.01639017    -0.21100
C1407       C  0.93241657  0.81325961  0.99581860    -0.09160
C1408       C  0.94989088  0.76961059  0.00450437     0.29720
F1409       F  0.97141212  0.74344200  0.98534665    -0.19680
H1410       H  0.94699023  0.71387464  0.03590232     0.18080
H1411       H  0.89802467  0.87380999  0.01018615     0.18090
F1412       F  0.87287590  0.84392259  0.06066378    -0.19670
C1413       C  0.69654135  0.55801722  0.24442850    -0.21100
C1414       C  0.67859937  0.55297260  0.21644181    -0.09140
C1415       C  0.63225717  0.54602335  0.21343367     0.29710
C1416       C  0.60463623  0.54702792  0.23765443    -0.21100
C1417       C  0.62255712  0.55591394  0.26501985    -0.09160
C1418       C  0.66890447  0.56019069  0.26829832     0.29720
F1419       F  0.68740045  0.56759505  0.29456634    -0.19680
H1420       H  0.73198020  0.56278989  0.24782842     0.18080
H1421       H  0.56892182  0.54343652  0.23472257     0.18090
F1422       F  0.61325394  0.54045863  0.18706982    -0.19670
C1423       C  0.91661808  0.75834876  0.27675958    -0.21100
C1424       C  0.96229537  0.74926486  0.27197264    -0.09140
C1425       C  0.97625691  0.74396640  0.24363710     0.29710
C1426       C  0.94443558  0.73952091  0.22158423    -0.21100
C1427       C  0.89839858  0.73984989  0.22766628    -0.09160
C1428       C  0.88454924  0.75210486  0.25500924     0.29720
F1429       F  0.84038639  0.75484653  0.26122059    -0.19680
H1430       H  0.90531383  0.76337210  0.29841809     0.18080
H1431       H  0.95595666  0.73109905  0.20038436     0.18090
F1432       F  0.02007912  0.73536606  0.23824459    -0.19670
C1433       C  0.86851798  0.00997375  0.02695657    -0.21100
C1434       C  0.84089341  0.99672959  0.04982502    -0.09140
C1435       C  0.81340517  0.95879631  0.04665201     0.29710
C1436       C  0.81223685  0.93601452  0.02057576    -0.21100
C1437       C  0.83850530  0.95056271  0.99713357    -0.09160
C1438       C  0.86778574  0.98710205  0.00104002     0.29720
F1439       F  0.89359330  0.00301389  0.97916466    -0.19680
H1440       H  0.88854662  0.04021155  0.02846715     0.18080
H1441       H  0.78983502  0.90773666  0.01847184     0.18090
F1442       F  0.78479333  0.94632707  0.06785135    -0.19670
C1443       C  0.64276259  0.26395716  0.98910990    -0.21100
C1444       C  0.66889142  0.30267557  0.98396100    -0.09140
C1445       C  0.69350069  0.32011813  0.00692659     0.29710
C1446       C  0.69455655  0.29712274  0.03398538    -0.21100
C1447       C  0.67253275  0.25563466  0.03810224    -0.09160
C1448       C  0.64479712  0.24027011  0.01601971     0.29720
F1449       F  0.62306937  0.20024557  0.01968175    -0.19680
H1450       H  0.62456130  0.24940475  0.97145512     0.18080
H1451       H  0.71705522  0.30863584  0.05060543     0.18090
F1452       F  0.72253262  0.35441399  0.00199384    -0.19670
C1453       C  0.80968491  0.86588671  0.18250198    -0.21100
C1454       C  0.77171956  0.84315444  0.17326226    -0.09140
C1455       C  0.72899025  0.86388677  0.17612141     0.29710
C1456       C  0.72564112  0.91012721  0.18124277    -0.21100
C1457       C  0.76469243  0.93528042  0.18314335    -0.09160
C1458       C  0.80610253  0.91202559  0.18807228     0.29720
F1459       F  0.84398053  0.93499159  0.19374444    -0.19680
H1460       H  0.84256934  0.84941711  0.18265401     0.18080
H1461       H  0.69299105  0.92704127  0.17923606     0.18090
F1462       F  0.69075286  0.84168409  0.17023126    -0.19670
C1463       C  0.81672241  0.41119674  0.14657040    -0.21100
C1464       C  0.78430818  0.43889039  0.13170296    -0.09140
C1465       C  0.74651058  0.41877687  0.11928537     0.29710
C1466       C  0.74098075  0.37190212  0.12234821    -0.21100
C1467       C  0.77328213  0.34429592  0.13720194    -0.09160
C1468       C  0.81136069  0.36407004  0.14931581     0.29720
F1469       F  0.84315622  0.33790906  0.16396513    -0.19680
H1470       H  0.84573705  0.42605460  0.15646430     0.18080
H1471       H  0.71223897  0.35697337  0.11214886     0.18090
F1472       F  0.71522623  0.44416739  0.10362485    -0.19670
C1473       C  0.57185448  0.13673967  0.23847096    -0.21100
C1474       C  0.58796897  0.12885816  0.26705917    -0.09140
C1475       C  0.62893893  0.14811734  0.27466022     0.29710
C1476       C  0.65219528  0.17559172  0.25493193    -0.21100
C1477       C  0.63738551  0.18267325  0.22609219    -0.09160
C1478       C  0.59662786  0.16262884  0.21800476     0.29720
F1479       F  0.58086069  0.16756737  0.19039050    -0.19680
H1480       H  0.53954328  0.12417976  0.23217161     0.18080
H1481       H  0.68283812  0.19065340  0.26227478     0.18090
F1482       F  0.64555445  0.14201074  0.30202131    -0.19670
C1483       C  0.93253464  0.09166480  0.23514949    -0.21100
C1484       C  0.88610194  0.10016926  0.23222202    -0.09140
C1485       C  0.86777340  0.13571250  0.24801142     0.29710
C1486       C  0.89442000  0.16432100  0.26375582    -0.21100
C1487       C  0.93998446  0.15423590  0.26893412    -0.09160
C1488       C  0.95896197  0.11716302  0.25411260     0.29720
F1489       F  0.00199786  0.10355388  0.25887393    -0.19680
H1490       H  0.94785242  0.06353258  0.22428789     0.18080
H1491       H  0.87764744  0.19167954  0.27470784     0.18090
F1492       F  0.82314837  0.14199161  0.24965843    -0.19670
C1493       C  0.30768696  0.53805870  0.99571033    -0.21100
C1494       C  0.33600274  0.52047128  0.01841323    -0.09140
C1495       C  0.34407304  0.47273647  0.02086745     0.29710
C1496       C  0.32576814  0.44418400  0.00035979    -0.21100
C1497       C  0.29696961  0.46204416  0.97795527    -0.09160
C1498       C  0.28663661  0.50911776  0.97671937     0.29720
F1499       F  0.25717166  0.52748680  0.95665741    -0.19680
H1500       H  0.30081626  0.57451484  0.99295168     0.18080
H1501       H  0.33458864  0.40794883  0.00173242     0.18090
F1502       F  0.37036029  0.45368027  0.04258888    -0.19670
C1503       C  0.27728573  0.80351352  0.03612087    -0.21100
C1504       C  0.24675292  0.77250747  0.02445894    -0.09140
C1505       C  0.24870902  0.76575418  0.99466057     0.29710
C1506       C  0.28253868  0.78529726  0.97794233    -0.21100
C1507       C  0.31584736  0.81224547  0.99003433    -0.09160
C1508       C  0.31171779  0.82294385  0.01917393     0.29720
F1509       F  0.34249708  0.84936611  0.03174931    -0.19680
H1510       H  0.27706524  0.80964071  0.05896020     0.18080
H1511       H  0.28352433  0.77799651  0.95530007     0.18090
F1512       F  0.21973094  0.73742195  0.98196227    -0.19670
C1513       C  0.55830195  0.67595639  0.11954657    -0.21100
C1514       C  0.58410301  0.64065534  0.10815511    -0.09140
C1515       C  0.56296431  0.60456386  0.09474157     0.29710
C1516       C  0.51645279  0.60387286  0.09321661    -0.21100
C1517       C  0.49078765  0.63910518  0.10494470    -0.09160
C1518       C  0.51219068  0.67535483  0.11803502     0.29720
F1519       F  0.48887127  0.70948783  0.13047255    -0.19680
H1520       H  0.57375297  0.70376075  0.13040464     0.18080
H1521       H  0.50054513  0.57571976  0.08299912     0.18090
F1522       F  0.58700340  0.57022965  0.08304703    -0.19670
C1523       C  0.01840878  0.62097772  0.14582142    -0.21100
C1524       C  0.99309803  0.65713931  0.13243060    -0.09140
C1525       C  0.01184192  0.68581739  0.11114557     0.29710
C1526       C  0.05535824  0.67724048  0.10271211    -0.21100
C1527       C  0.08041976  0.64020044  0.11552833    -0.09160
C1528       C  0.06175429  0.61220932  0.13734607     0.29720
F1529       F  0.08574573  0.57763710  0.15132953    -0.19680
H1530       H  0.00395019  0.59853406  0.16221683     0.18080
H1531       H  0.06947009  0.69953991  0.08612305     0.18090
F1532       F  0.98730759  0.72006496  0.09724304    -0.19670
C1533       C  0.09570097  0.65385878  0.23193087    -0.21100
C1534       C  0.11549264  0.65138448  0.25979499    -0.09140
C1535       C  0.15987508  0.66580540  0.26267145     0.29710
C1536       C  0.18421155  0.68050932  0.23859770    -0.21100
C1537       C  0.16511276  0.68266158  0.21059018    -0.09160
C1538       C  0.11997316  0.66982891  0.20763748     0.29720
F1539       F  0.09937554  0.67225722  0.18133684    -0.19680
H1540       H  0.06105908  0.64473149  0.22907557     0.18080
H1541       H  0.21863561  0.68995346  0.24203347     0.18090
F1542       F  0.18012284  0.66570694  0.28902404    -0.19670
C1543       C  0.45472731  0.56543338  0.22013946    -0.21100
C1544       C  0.43810752  0.59414394  0.19735184    -0.09140
C1545       C  0.45032725  0.64077488  0.19656124     0.29710
C1546       C  0.47280606  0.65928260  0.21990945    -0.21100
C1547       C  0.48592546  0.63127378  0.24381746    -0.09160
C1548       C  0.47932392  0.58373348  0.24278199     0.29720
F1549       F  0.49182991  0.55569812  0.26548023    -0.19680
H1550       H  0.44536732  0.52984963  0.22176238     0.18080
H1551       H  0.47696732  0.69598847  0.22019553     0.18090
F1552       F  0.43605323  0.67004577  0.17476166    -0.19670
C1553       C  0.26776698  0.05926557  0.99055625    -0.21100
C1554       C  0.30687359  0.07625027  0.00323751    -0.09140
C1555       C  0.34837867  0.05838769  0.99528594     0.29710
C1556       C  0.35049827  0.02039145  0.97812676    -0.21100
C1557       C  0.31119626  0.99965977  0.96809764    -0.09160
C1558       C  0.26969794  0.02104017  0.97338193     0.29720
F1559       F  0.23094432  0.00393717  0.96327618    -0.19680
H1560       H  0.23523986  0.07205155  0.99695627     0.18080
H1561       H  0.38332883  0.00618740  0.97369607     0.18090
F1562       F  0.38664073  0.07351266  0.00739339    -0.19670
C1563       C  0.20830794  0.32647026  0.00284883    -0.21100
C1564       C  0.17755619  0.31266023  0.98202840    -0.09140
C1565       C  0.15138938  0.27429838  0.98797035     0.29710
C1566       C  0.16105420  0.24607322  0.01241013    -0.21100
C1567       C  0.19733381  0.25571872  0.03057518    -0.09160
C1568       C  0.21909508  0.29749857  0.02673597     0.29720
F1569       F  0.25305835  0.30853476  0.04470802    -0.19680
H1570       H  0.22895389  0.35586527  0.99839379     0.18080
H1571       H  0.14320051  0.21445509  0.01550726     0.18090
F1572       F  0.12139913  0.26055576  0.96800703    -0.19670
C1573       C  0.21355111  0.91065503  0.11858139    -0.21100
C1574       C  0.23387428  0.93072621  0.14209194    -0.09140
C1575       C  0.26856782  0.90726252  0.15792852     0.29710
C1576       C  0.28207195  0.86349844  0.15042881    -0.21100
C1577       C  0.26054020  0.84306857  0.12749768    -0.09160
C1578       C  0.22658225  0.86693080  0.11136408     0.29720
F1579       F  0.20540462  0.84744179  0.08903031    -0.19680
H1580       H  0.18714002  0.92866605  0.10603421     0.18080
H1581       H  0.30786462  0.84487535  0.16317357     0.18090
F1582       F  0.28970850  0.92677995  0.18024325    -0.19670
C1583       C  0.34295691  0.39541611  0.11028020    -0.21100
C1584       C  0.30191325  0.42031585  0.10973548    -0.09140
C1585       C  0.26178250  0.39645452  0.10609738     0.29710
C1586       C  0.26280261  0.34922914  0.10465711    -0.21100
C1587       C  0.30332377  0.32445247  0.10654171    -0.09160
C1588       C  0.34368678  0.34756065  0.10873628     0.29720
F1589       F  0.38324758  0.32377942  0.11117275    -0.19680
H1590       H  0.37431672  0.41275624  0.11264111     0.18080
H1591       H  0.23141513  0.33153492  0.10327437     0.18090
F1592       F  0.22101710  0.41810951  0.10489239    -0.19670
C1593       C  0.53767322  0.11573201  0.09661468    -0.21100
C1594       C  0.55808444  0.15321927  0.10895026    -0.09140
C1595       C  0.53207723  0.19382446  0.11180885     0.29710
C1596       C  0.48614036  0.19511100  0.10480693    -0.21100
C1597       C  0.46530197  0.15631978  0.09464995    -0.09160
C1598       C  0.49190751  0.11723640  0.08952277     0.29720
F1599       F  0.47261224  0.07884266  0.08022871    -0.19680
H1600       H  0.55675691  0.08439675  0.09351635     0.18080
H1601       H  0.46608838  0.22497575  0.10991508     0.18090
F1602       F  0.54998559  0.23113395  0.12353904    -0.19670
C1603       C  0.99498499  0.07672339  0.16459346    -0.21100
C1604       C  0.97665130  0.10789199  0.14309849    -0.09140
C1605       C  0.00568932  0.12960868  0.12389583     0.29710
C1606       C  0.05164842  0.11959704  0.12575615    -0.21100
C1607       C  0.07052806  0.08947519  0.14763382    -0.09160
C1608       C  0.04160103  0.06853082  0.16745308     0.29720
F1609       F  0.05794325  0.03849441  0.18843280    -0.19680
H1610       H  0.97302429  0.05825726  0.17894200     0.18080
H1611       H  0.07257406  0.13524645  0.10955318     0.18090
F1612       F  0.98940946  0.15841551  0.10220864    -0.19670
C1613       C  0.18140404  0.10861566  0.27010220    -0.21100
C1614       C  0.17192726  0.14267879  0.24812925    -0.09140
C1615       C  0.12802169  0.15971052  0.24438045     0.29710
C1616       C  0.09409111  0.14138138  0.26124913    -0.21100
C1617       C  0.10287011  0.10471824  0.28157770    -0.09160
C1618       C  0.14711963  0.08906376  0.28617431     0.29720
F1619       F  0.15727682  0.05597435  0.30690646    -0.19680
H1620       H  0.21499805  0.09401966  0.27279480     0.18080
H1621       H  0.06113406  0.15742706  0.25921947     0.18090
F1622       F  0.11736147  0.19146148  0.22291864    -0.19670
C1623       C  0.39747573  0.08820512  0.23970816    -0.21100
C1624       C  0.35143650  0.09881257  0.23562376    -0.09140
C1625       C  0.33504227  0.14057149  0.24591758     0.29710
C1626       C  0.36310515  0.16891230  0.26140138    -0.21100
C1627       C  0.40812729  0.15616260  0.26781484    -0.09160
C1628       C  0.42547633  0.11644064  0.25543565     0.29720
F1629       F  0.46851311  0.10260824  0.26045956    -0.19680
H1630       H  0.41180720  0.05743361  0.23102565     0.18080
H1631       H  0.34841571  0.19905547  0.27065907     0.18090
F1632       F  0.29154613  0.15361314  0.24196143    -0.19670
loop_ 
_geom_bond_atom_site_label_1 
_geom_bond_atom_site_label_2 
_geom_bond_distance 
_geom_bond_site_symmetry_2 
_ccdc_geom_bond_type 
O1          Zr13   2.395       .  S
O1            C3   1.266       .  A
O2          Zr39   2.509       .  S
O2            C3   1.294       .  A
C3         C1624   1.497       .  S
O4          Zr16   2.417       .  S
O4            C6   1.285       .  A
O5          Zr40   2.430       .  S
O5            C6   1.288       .  A
C6         C1587   1.457       .  S
O7          Zr16   2.530       .  S
O7            C9   1.305       .  A
O8          Zr39   2.293       .  S
O8            C9   1.268       .  A
C9         C1614   1.457       .  S
O10         Zr13   2.394       .  S
O10          C12   1.278       .  A
O11         Zr40   2.471       .  S
O11          C12   1.294       .  A
C12        C1597   1.474       .  S
Zr13         O14   2.434       .  S
Zr13         O15   2.436       .  S
Zr13         O19   2.377       .  S
Zr13         O20   2.371       .  S
Zr13         O43   2.360       .  S
Zr13         O45   2.377       .  S
O14          H57   0.989       .  S
O15          H56   0.990       .  S
O15          H60   0.990       .  S
Zr16         O17   2.433       .  S
Zr16         O18   2.435       .  S
Zr16         O20   2.415       .  S
Zr16         O19   2.313       .  S
Zr16         O44   2.358       .  S
Zr16         O46   2.375       .  S
O17          H58   0.990       .  S
O17          H61   0.990       .  S
O18          H51   0.990       .  S
O19         Zr39   2.367       .  S
O20         Zr40   2.399       .  S
O20          H47   0.966       .  S
O21         Zr33   2.383       .  S
O21          C23   1.277       .  A
O22         Zr40   2.477       .  S
O22          C23   1.295       .  A
C23        C1554   1.462       .  S
O24         Zr36   2.393       .  S
O24          C26   1.271       .  A
O25         Zr39   2.507       .  S
O25          C26   1.295       .  A
C26        C1607   1.494       .  S
O27         Zr36   2.407       .  S
O27          C29   1.280       .  A
O28         Zr40   2.426       .  S
O28          C29   1.288       .  A
C29        C1567   1.463       .  S
O30         Zr33   2.426       .  S
O30          C32   1.276   1_545  A
O31         Zr39   2.373   1_565  S
O31          C32   1.270       .  A
C32        C1574   1.450       .  S
Zr33         O34   2.439   1_545  S
Zr33         O35   2.435   1_545  S
Zr33         O41   2.399       .  S
Zr33         O42   2.351       .  S
Zr33         O45   2.361       .  S
Zr33         O43   2.376       .  S
O34          H54   0.990       .  S
O34          H59   0.990       .  S
O35          H55   0.990       .  S
Zr36         O37   2.435       .  S
Zr36         O38   2.437       .  S
Zr36         O42   2.364       .  S
Zr36         O41   2.355       .  S
Zr36         O46   2.349       .  S
Zr36         O44   2.364       .  S
O37          H53   0.990       .  S
O38          H52   0.990       .  S
O38          H62   0.990       .  S
Zr39         O42   2.393       .  S
Zr39         O44   2.400       .  S
Zr39         O45   2.422       .  S
Zr40         O41   2.394       .  S
Zr40         O43   2.387       .  S
Zr40         O46   2.394       .  S
O41          H49   0.965       .  S
O44          H48   0.965       .  S
O45          H50   0.966       .  S
O63         Zr75   2.443       .  S
O63          C65   1.288       .  A
O64        Zr101   2.496       .  S
O64          C65   1.300       .  A
C65        C1544   1.484       .  S
O66         Zr78   2.434       .  S
O66          C68   1.287       .  A
O67        Zr102   2.359       .  S
O67          C68   1.277       .  A
C68        C1527   1.450       .  S
O69         Zr78   2.421       .  S
O69          C71   1.284       .  A
O70        Zr101   2.425       .  S
O70          C71   1.288       .  A
C71        C1584   1.482       .  S
O72         Zr75   2.440       .  S
O72          C74   1.282       .  A
O73        Zr102   2.486       .  S
O73          C74   1.294       .  A
C74        C1537   1.509       .  S
Zr75         O76   2.434       .  S
Zr75         O77   2.440       .  S
Zr75         O81   2.375       .  S
Zr75         O82   2.354       .  S
Zr75        O105   2.386       .  S
Zr75        O107   2.361       .  S
O76         H119   0.990       .  S
O77         H118   0.990       .  S
O77         H122   0.990       .  S
Zr78         O79   2.436       .  S
Zr78         O80   2.436       .  S
Zr78         O82   2.337       .  S
Zr78         O81   2.393       .  S
Zr78        O106   2.338       .  S
Zr78        O108   2.380       .  S
O79         H120   0.990       .  S
O79         H123   0.990       .  S
O80         H113   0.990       .  S
O81        Zr101   2.400       .  S
O82        Zr102   2.408       .  S
O82         H109   0.964       .  S
O83         Zr95   2.450       .  S
O83          C85   1.289       .  A
O84        Zr102   2.352       .  S
O84          C85   1.276       .  A
C85        C1577   1.445       .  S
O86         Zr98   2.429       .  S
O86          C88   1.279       .  A
O87        Zr101   2.459       .  S
O87          C88   1.288       .  A
C88        C1494   1.494       .  S
O89         Zr98   2.449       .  S
O89          C91   1.280       .  A
O90        Zr102   2.501       .  S
O90          C91   1.295       .  A
C91        C1504   1.510       .  S
O92         Zr95   2.414       .  S
O92          C94   1.284       .  A
O93        Zr101   2.390       .  S
O93          C94   1.282       .  A
C94        C1517   1.459       .  S
Zr95         O96   2.436       .  S
Zr95         O97   2.433       .  S
Zr95        O103   2.285       .  S
Zr95        O104   2.387       .  S
Zr95        O107   2.307       .  S
Zr95        O105   2.377       .  S
O96         H116   0.990       .  S
O96         H121   0.990       .  S
O97         H117   0.990       .  S
Zr98         O99   2.427       .  S
Zr98        O100   2.436       .  S
Zr98        O104   2.385       .  S
Zr98        O103   2.363       .  S
Zr98        O108   2.367       .  S
Zr98        O106   2.364       .  S
O99         H115   0.990       .  S
O100        H114   0.990       .  S
O100        H124   0.990       .  S
Zr101       O104   2.402       .  S
Zr101       O106   2.409       .  S
Zr101       O107   2.383       .  S
Zr102       O103   2.390       .  S
Zr102       O105   2.387       .  S
Zr102       O108   2.387       .  S
O103        H111   0.958       .  S
O106        H110   0.964       .  S
O107        H112   0.957       .  S
O125       Zr137   2.417       .  S
O125        C127   1.284       .  A
O126       Zr163   2.485       .  S
O126        C127   1.299       .  A
C127       C1434   1.477   1_545  S
O128       Zr140   2.402       .  S
O128        C130   1.282       .  A
O129       Zr164   2.421       .  S
O129        C130   1.290       .  A
C130       C1467   1.454       .  S
O131       Zr140   2.503       .  S
O131        C133   1.299       .  A
O132       Zr163   2.395       .  S
O132        C133   1.281       .  A
C133       C1604   1.488       .  S
O134       Zr137   2.454       .  S
O134        C136   1.291       .  A
O135       Zr164   2.418       .  S
O135        C136   1.286       .  A
C136       C1447   1.465       .  S
Zr137       O138   2.434       .  S
Zr137       O139   2.435       .  S
Zr137       O143   2.385       .  S
Zr137       O144   2.360       .  S
Zr137       O167   2.353       .  S
Zr137       O169   2.385       .  S
O138        H181   0.990       .  S
O139        H180   0.990       .  S
O139        H184   0.990       .  S
Zr140       O141   2.434       .  S
Zr140       O142   2.435       .  S
Zr140       O144   2.368       .  S
Zr140       O143   2.353       .  S
Zr140       O168   2.319       .  S
Zr140       O170   2.406       .  S
O141        H182   0.990       .  S
O141        H185   0.990       .  S
O142        H175   0.990       .  S
O143       Zr163   2.388       .  S
O144       Zr164   2.414       .  S
O144        H171   0.965       .  S
O145       Zr157   2.485       .  S
O145        C147   1.297       .  A
O146       Zr164   2.411       .  S
O146        C147   1.285       .  A
C147       C1594   1.494       .  S
O148       Zr160   2.439       .  S
O148        C150   1.277       .  A
O149       Zr163   2.495       .  S
O149        C150   1.290       .  A
C150       C1484   1.506       .  S
O151       Zr160   2.430       .  S
O151        C153   1.278       .  A
O152       Zr164   2.491       .  S
O152        C153   1.294       .  A
C153       C1477   1.504       .  S
O154       Zr157   2.428       .  S
O154        C156   1.288   1_545  A
O155       Zr163   2.378   1_565  S
O155        C156   1.281       .  A
C156       C1457   1.458       .  S
Zr157       O158   2.439       .  S
Zr157       O159   2.435       .  S
Zr157       O165   2.328       .  S
Zr157       O166   2.377       .  S
Zr157       O169   2.357       .  S
Zr157       O167   2.352       .  S
O158        H178   0.990       .  S
O158        H183   0.990       .  S
O159        H179   0.990       .  S
Zr160       O161   2.442       .  S
Zr160       O162   2.451       .  S
Zr160       O166   2.368       .  S
Zr160       O165   2.379       .  S
Zr160       O170   2.346       .  S
Zr160       O168   2.379       .  S
O161        H177   0.989       .  S
O162        H176   0.988       .  S
O162        H186   0.990       .  S
Zr163       O166   2.386       .  S
Zr163       O168   2.397       .  S
Zr163       O169   2.412       .  S
Zr164       O165   2.388       .  S
Zr164       O167   2.379       .  S
Zr164       O170   2.381       .  S
O165        H173   0.961       .  S
O168        H172   0.963       .  S
O169        H174   0.965       .  S
O187       Zr199   2.382       .  S
O187        C189   1.278       .  A
O188       Zr225   2.399       .  S
O188        C189   1.281       .  A
C189       C1524   1.441       .  S
O190       Zr202   2.414       .  S
O190        C192   1.283       .  A
O191       Zr226   2.485       .  S
O191        C192   1.298       .  A
C192       C1397   1.489       .  S
O193       Zr202   2.440       .  S
O193        C195   1.287       .  A
O194       Zr225   2.414       .  S
O194        C195   1.282       .  A
C195       C1404   1.469       .  S
O196       Zr199   2.454       .  S
O196        C198   1.290       .  A
O197       Zr226   2.348       .  S
O197        C198   1.273       .  A
C198       C1464   1.461       .  S
Zr199       O200   2.434       .  S
Zr199       O201   2.436       .  S
Zr199       O205   2.383       .  S
Zr199       O206   2.332       .  S
Zr199       O229   2.341       .  S
Zr199       O231   2.364       .  S
O200        H243   0.990       .  S
O201        H242   0.990       .  S
O201        H246   0.990       .  S
Zr202       O203   2.436       .  S
Zr202       O204   2.435       .  S
Zr202       O206   2.390       .  S
Zr202       O205   2.358       .  S
Zr202       O230   2.363       .  S
Zr202       O232   2.371       .  S
O203        H244   0.990       .  S
O203        H247   0.990       .  S
O204        H237   0.990       .  S
O205       Zr225   2.370       .  S
O206       Zr226   2.381       .  S
O206        H233   0.964       .  S
O207       Zr219   2.424       .  S
O207        C209   1.279       .  A
O208       Zr226   2.460       .  S
O208        C209   1.289       .  A
C209       C1414   1.492       .  S
O210       Zr222   2.400       .  S
O210        C212   1.280       .  A
O211       Zr225   2.425       .  S
O211        C212   1.287       .  A
C212       C1454   1.459       .  S
O213       Zr222   2.416       .  S
O213        C215   1.283       .  A
O214       Zr226   2.378       .  S
O214        C215   1.278       .  A
C215       C1514   1.458       .  S
O216       Zr219   2.504       .  S
O216        C218   1.300       .  A
O217       Zr225   2.367       .  S
O217        C218   1.276       .  A
C218       C1427   1.475       .  S
Zr219       O220   2.435       .  S
Zr219       O221   2.434       .  S
Zr219       O227   2.404       .  S
Zr219       O228   2.328       .  S
Zr219       O231   2.361       .  S
Zr219       O229   2.382       .  S
O220        H240   0.990       .  S
O220        H245   0.990       .  S
O221        H241   0.990       .  S
Zr222       O223   2.434       .  S
Zr222       O224   2.435       .  S
Zr222       O228   2.362       .  S
Zr222       O227   2.362       .  S
Zr222       O232   2.359       .  S
Zr222       O230   2.370       .  S
O223        H239   0.990       .  S
O224        H238   0.990       .  S
O224        H248   0.990       .  S
Zr225       O228   2.356       .  S
Zr225       O230   2.380       .  S
Zr225       O231   2.393       .  S
Zr226       O227   2.403       .  S
Zr226       O229   2.393       .  S
Zr226       O232   2.382       .  S
O227        H235   0.966       .  S
O230        H234   0.966       .  S
O231        H236   0.965       .  S
O249       Zr261   2.420       .  S
O249        C251   1.285       .  A
O250       Zr287   2.411       .  S
O250        C251   1.283       .  A
C251       C1564   1.450       .  S
O252       Zr264   2.368       .  S
O252        C254   1.274       .  A
O253       Zr288   2.449       .  S
O253        C254   1.291       .  A
C254       C1357   1.450       .  S
O255       Zr264   2.406       .  S
O255        C257   1.280       .  A
O256       Zr287   2.479       .  S
O256        C257   1.296       .  A
C257       C1497   1.486       .  S
O258       Zr261   2.437       .  S
O258        C260   1.289       .  A
O259       Zr288   2.433       .  S
O259        C260   1.289       .  A
C260       C1387   1.488       .  S
Zr261       O262   2.434       .  S
Zr261       O263   2.435       .  S
Zr261       O267   2.369       .  S
Zr261       O268   2.367       .  S
Zr261       O291   2.350       .  S
Zr261       O293   2.363       .  S
O262        H305   0.990       .  S
O263        H304   0.990       .  S
O263        H308   0.990       .  S
Zr264       O265   2.437       .  S
Zr264       O266   2.434       .  S
Zr264       O268   2.356       .  S
Zr264       O267   2.338       .  S
Zr264       O292   2.353       .  S
Zr264       O294   2.370       .  S
O265        H306   0.990       .  S
O265        H309   0.990       .  S
O266        H299   0.990       .  S
O267       Zr287   2.385       .  S
O268       Zr288   2.397       .  S
O268        H295   0.965       .  S
O269       Zr281   2.409       .  S
O269        C271   1.269       .  A
O270       Zr288   2.465       .  S
O270        C271   1.283       .  A
C271       C1334   1.482       .  S
O272       Zr284   2.417       .  S
O272        C274   1.283       .  A
O273       Zr287   2.431       .  S
O273        C274   1.288       .  A
C274       C1377   1.455       .  S
O275       Zr284   2.472       .  S
O275        C277   1.293       .  A
O276       Zr288   2.416       .  S
O276        C277   1.286       .  A
C277       C1344   1.497       .  S
O278       Zr281   2.409       .  S
O278        C280   1.281       .  A
O279       Zr287   2.464       .  S
O279        C280   1.294       .  A
C280       C1364   1.474       .  S
Zr281       O282   2.443       .  S
Zr281       O283   2.435       .  S
Zr281       O289   2.387       .  S
Zr281       O290   2.373       .  S
Zr281       O293   2.373       .  S
Zr281       O291   2.381       .  S
O282        H302   0.987       .  S
O282        H307   0.989       .  S
O283        H303   0.990       .  S
Zr284       O285   2.434       .  S
Zr284       O286   2.436       .  S
Zr284       O290   2.386       .  S
Zr284       O289   2.354       .  S
Zr284       O294   2.356       .  S
Zr284       O292   2.383       .  S
O285        H301   0.990       .  S
O286        H300   0.990       .  S
O286        H310   0.990       .  S
Zr287       O290   2.398       .  S
Zr287       O292   2.385       .  S
Zr287       O293   2.398       .  S
Zr288       O289   2.411       .  S
Zr288       O291   2.401       .  S
Zr288       O294   2.379       .  S
O289        H297   0.964       .  S
O292        H296   0.966       .  S
O293        H298   0.965       .  S
O311       Zr323   2.524       .  S
O311        C313   1.304       .  A
O312       Zr349   2.355       .  S
O312        C313   1.280       .  A
C313       C1557   1.490       .  S
O314       Zr326   2.448       .  S
O314        C316   1.287       .  A
O315       Zr350   2.399       .  S
O315        C316   1.282       .  A
C316       C1374   1.478       .  S
O317       Zr326   2.429       .  S
O317        C319   1.275       .  A
O318       Zr349   2.556       .  S
O318        C319   1.302       .  A
C319       C1507   1.505       .  S
O320       Zr323   2.371       .  S
O320        C322   1.271       .  A
O321       Zr350   2.516       .  S
O321        C322   1.301       .  A
C322       C1324   1.482       .  S
Zr323       O324   2.438       .  S
Zr323       O325   2.434       .  S
Zr323       O329   2.297       .  S
Zr323       O330   2.435       .  S
Zr323       O353   2.381       .  S
Zr323       O355   2.336       .  S
O324        H367   0.990       .  S
O325        H366   0.990       .  S
O325        H370   0.990       .  S
Zr326       O327   2.441       .  S
Zr326       O328   2.436       .  S
Zr326       O330   2.378       .  S
Zr326       O329   2.364       .  S
Zr326       O354   2.383       .  S
Zr326       O356   2.346       .  S
O327        H368   0.990       .  S
O327        H371   0.990       .  S
O328        H361   0.990       .  S
O329       Zr349   2.323       .  S
O330       Zr350   2.400       .  S
O330        H357   0.965       .  S
O331       Zr343   2.567       .  S
O331        C333   1.313       .  A
O332       Zr350   2.323       .  S
O332        C333   1.270       .  A
C333       C1294   1.495       .  S
O334       Zr346   2.412       .  S
O334        C336   1.275       .  A
O335       Zr349   2.479       .  S
O335        C336   1.295       .  A
C336       C1317   1.490       .  S
O337       Zr346   2.402       .  S
O337        C339   1.267       .  A
O338       Zr350   2.530       .  S
O338        C339   1.298       .  A
C339       C1304   1.512       .  S
O340       Zr343   2.419       .  S
O340        C342   1.285   1_565  A
O341       Zr349   2.468       .  S
O341        C342   1.297   1_565  A
C342       C1384   1.468       .  S
Zr343       O344   2.436       .  S
Zr343       O345   2.434       .  S
Zr343       O351   2.294       .  S
Zr343       O352   2.413       .  S
Zr343       O355   2.377       .  S
Zr343       O353   2.343       .  S
O344        H364   0.990       .  S
O344        H369   0.990       .  S
O345        H365   0.990       .  S
Zr346       O347   2.426       .  S
Zr346       O348   2.437       .  S
Zr346       O352   2.365       .  S
Zr346       O351   2.389       .  S
Zr346       O356   2.398       .  S
Zr346       O354   2.372       .  S
O347        H363   0.990       .  S
O348        H362   0.990       .  S
O348        H372   0.990       .  S
Zr349       O352   2.391       .  S
Zr349       O354   2.407       .  S
Zr349       O355   2.414       .  S
Zr350       O351   2.392       .  S
Zr350       O353   2.395       .  S
Zr350       O356   2.399       .  S
O351        H359   0.954       .  S
O354        H358   0.965       .  S
O355        H360   0.964       .  S
O373       Zr385   2.419       .  S
O373        C375   1.284       .  A
O374       Zr411   2.447       .  S
O374        C375   1.289       .  A
C375       C1444   1.466       .  S
O376       Zr388   2.401       .  S
O376        C378   1.281       .  A
O377       Zr412   2.475       .  S
O377        C378   1.298       .  A
C378       C1367   1.476       .  S
O379       Zr388   2.495       .  S
O379        C381   1.299       .  A
O380       Zr411   2.378       .  S
O380        C381   1.278       .  A
C381       C1394   1.482       .  S
O382       Zr385   2.442       .  S
O382        C384   1.288       .  A
O383       Zr412   2.451       .  S
O383        C384   1.293       .  A
C384       C1284   1.491       .  S
Zr385       O386   2.434       .  S
Zr385       O387   2.435       .  S
Zr385       O391   2.372       .  S
Zr385       O392   2.367       .  S
Zr385       O415   2.356       .  S
Zr385       O417   2.371       .  S
O386        H429   0.990       .  S
O387        H428   0.990       .  S
O387        H432   0.990       .  S
Zr388       O389   2.435       .  S
Zr388       O390   2.434       .  S
Zr388       O392   2.385       .  S
Zr388       O391   2.331       .  S
Zr388       O416   2.344       .  S
Zr388       O418   2.385       .  S
O389        H430   0.990       .  S
O389        H433   0.990       .  S
O390        H423   0.990       .  S
O391       Zr411   2.382       .  S
O392       Zr412   2.412       .  S
O392        H419   0.966       .  S
O393       Zr405   2.388       .  S
O393        C395   1.265       .  A
O394       Zr412   2.530       .  S
O394        C395   1.295       .  A
C395       C1254   1.512       .  S
O396       Zr408   2.416       .  S
O396        C398   1.281       .  A
O397       Zr411   2.470       .  S
O397        C398   1.292       .  A
C398       C1277   1.487       .  S
O399       Zr408   2.476       .  S
O399        C401   1.295       .  A
O400       Zr412   2.408       .  S
O400        C401   1.286       .  A
C401       C1264   1.494       .  S
O402       Zr405   2.394       .  S
O402        C404   1.277       .  A
O403       Zr411   2.419       .  S
O403        C404   1.285       .  A
C404       C1354   1.443       .  S
Zr405       O406   2.443       .  S
Zr405       O407   2.436       .  S
Zr405       O413   2.387       .  S
Zr405       O414   2.366       .  S
Zr405       O417   2.372       .  S
Zr405       O415   2.387       .  S
O406        H426   0.988       .  S
O406        H431   0.990       .  S
O407        H427   0.990       .  S
Zr408       O409   2.434       .  S
Zr408       O410   2.434       .  S
Zr408       O414   2.392       .  S
Zr408       O413   2.354       .  S
Zr408       O418   2.346       .  S
Zr408       O416   2.382       .  S
O409        H425   0.990       .  S
O410        H424   0.990       .  S
O410        H434   0.990       .  S
Zr411       O414   2.391       .  S
Zr411       O416   2.393       .  S
Zr411       O417   2.391       .  S
Zr412       O413   2.405       .  S
Zr412       O415   2.392       .  S
Zr412       O418   2.390       .  S
O413        H421   0.965       .  S
O416        H420   0.965       .  S
O417        H422   0.965       .  S
O435       Zr447   2.477       .  S
O435        C437   1.295       .  A
O436       Zr473   2.413       .  S
O436        C437   1.285       .  A
C437       C1437   1.496       .  S
O438       Zr450   2.494       .  S
O438        C440   1.296       .  A
O439       Zr474   2.394       .  S
O439        C440   1.282       .  A
C440       C1274   1.494       .  S
O441       Zr450   2.429       .  S
O441        C443   1.288       .  A
O442       Zr473   2.440       .  S
O442        C443   1.289       .  A
C443       C1407   1.471       .  S
O444       Zr447   2.394       .  S
O444        C446   1.279       .  A
O445       Zr474   2.513       .  S
O445        C446   1.303       .  A
C446       C1314   1.486       .  S
Zr447       O448   2.434       .  S
Zr447       O449   2.435       .  S
Zr447       O453   2.329       .  S
Zr447       O454   2.391       .  S
Zr447       O477   2.387       .  S
Zr447       O479   2.357       .  S
O448        H491   0.990       .  S
O449        H490   0.990       .  S
O449        H494   0.990       .  S
Zr450       O451   2.438       .  S
Zr450       O452   2.434       .  S
Zr450       O454   2.361       .  S
Zr450       O453   2.380       .  S
Zr450       O478   2.387       .  S
Zr450       O480   2.359       .  S
O451        H492   0.990       .  S
O451        H495   0.990       .  S
O452        H485   0.990       .  S
O453       Zr473   2.389       .  S
O454       Zr474   2.398       .  S
O454        H481   0.966       .  S
O455       Zr467   2.581       .  S
O455        C457   1.316       .  A
O456       Zr474   2.307       .  S
O456        C457   1.268       .  A
C457       C1234   1.492       .  S
O458       Zr470   2.379       .  S
O458        C460   1.272       .  A
O459       Zr473   2.480       .  S
O459        C460   1.295       .  A
C460       C1327   1.473   1_655  S
O461       Zr470   2.380       .  S
O461        C463   1.259       .  A
O462       Zr474   2.544       .  S
O462        C463   1.296       .  A
C463       C1244   1.520       .  S
O464       Zr467   2.417       .  S
O464        C466   1.285   1_565  A
O465       Zr473   2.475       .  S
O465        C466   1.298   1_565  A
C466       C1287   1.481       .  S
Zr467       O468   2.436       .  S
Zr467       O469   2.434       .  S
Zr467       O475   2.307       .  S
Zr467       O476   2.424       .  S
Zr467       O479   2.404       .  S
Zr467       O477   2.334       .  S
O468        H488   0.990       .  S
O468        H493   0.990       .  S
O469        H489   0.990       .  S
Zr470       O471   2.428       .  S
Zr470       O472   2.441       .  S
Zr470       O476   2.367       .  S
Zr470       O475   2.386       .  S
Zr470       O480   2.394       .  S
Zr470       O478   2.351       .  S
O471        H487   0.990       .  S
O472        H486   0.989       .  S
O472        H496   0.989       .  S
Zr473       O476   2.381       .  S
Zr473       O478   2.392       .  S
Zr473       O479   2.403       .  S
Zr474       O475   2.393       .  S
Zr474       O477   2.378       .  S
Zr474       O480   2.393       .  S
O475        H483   0.958       .  S
O478        H482   0.965       .  S
O479        H484   0.966       .  S
O497       Zr509   2.418       .  S
O497        C499   1.270       .  A
O498       Zr535   2.477       .  S
O498        C499   1.290   1_455  A
C499       C1267   1.480       .  S
O500       Zr512   2.395   1_655  S
O500        C502   1.274       .  A
O501       Zr536   2.504       .  S
O501        C502   1.298       .  A
C502       C1207   1.486       .  S
O503       Zr512   2.474       .  S
O503        C505   1.294       .  A
O504       Zr535   2.427       .  S
O504        C505   1.289       .  A
C505       C1337   1.496       .  S
O506       Zr509   2.424       .  S
O506        C508   1.284       .  A
O507       Zr536   2.376       .  S
O507        C508   1.280       .  A
C508       C1214   1.455       .  S
Zr509       O510   2.435       .  S
Zr509       O511   2.437       .  S
Zr509       O515   2.381   1_655  S
Zr509       O516   2.359       .  S
Zr509       O539   2.360       .  S
Zr509       O541   2.372       .  S
O510        H553   0.989       .  S
O511        H552   0.990       .  S
O511        H556   0.990       .  S
Zr512       O513   2.435   1_455  S
Zr512       O514   2.436       .  S
Zr512       O516   2.407   1_455  S
Zr512       O515   2.339       .  S
Zr512       O540   2.353       .  S
Zr512       O542   2.384       .  S
O513        H554   0.990       .  S
O513        H557   0.990       .  S
O514        H547   0.990       .  S
O515       Zr535   2.382       .  S
O516       Zr536   2.397       .  S
O516        H543   0.966       .  S
O517       Zr529   2.382   1_655  S
O517        C519   1.262       .  A
O518       Zr536   2.532       .  S
O518        C519   1.290       .  A
C519       C1174   1.514       .  S
O520       Zr532   2.409       .  S
O520        C522   1.284       .  A
O521       Zr535   2.417       .  S
O521        C522   1.290       .  A
C522       C1227   1.448       .  S
O523       Zr532   2.594       .  S
O523        C525   1.317   1_455  A
O524       Zr536   2.289       .  S
O524        C525   1.266       .  A
C525       C1187   1.491       .  S
O526       Zr529   2.429       .  S
O526        C528   1.276       .  A
O527       Zr535   2.465       .  S
O527        C528   1.292       .  A
C528       C1194   1.494       .  S
Zr529       O530   2.435       .  S
Zr529       O531   2.434   1_455  S
Zr529       O537   2.395       .  S
Zr529       O538   2.343       .  S
Zr529       O541   2.351   1_455  S
Zr529       O539   2.389   1_455  S
O530        H550   0.987       .  S
O530        H555   0.988       .  S
O531        H551   0.990       .  S
Zr532       O533   2.434       .  S
Zr532       O534   2.435       .  S
Zr532       O538   2.418       .  S
Zr532       O537   2.310       .  S
Zr532       O542   2.315       .  S
Zr532       O540   2.398       .  S
O533        H549   0.990       .  S
O534        H548   0.990       .  S
O534        H558   0.990       .  S
Zr535       O538   2.404       .  S
Zr535       O540   2.415       .  S
Zr535       O541   2.403   1_455  S
Zr536       O537   2.408   1_655  S
Zr536       O539   2.386       .  S
Zr536       O542   2.366   1_655  S
O537        H545   0.964       .  S
O540        H544   0.965       .  S
O541        H546   0.963       .  S
O559       Zr571   2.383       .  S
O559        C561   1.256       .  A
O560       Zr597   2.585   1_655  S
O560        C561   1.307       .  A
C561       C1247   1.518       .  S
O562       Zr574   2.399   1_655  S
O562        C564   1.281       .  A
O563       Zr598   2.505       .  S
O563        C564   1.303       .  A
C564       C1197   1.483       .  S
O565       Zr574   2.584       .  S
O565        C567   1.317       .  A
O566       Zr597   2.317       .  S
O566        C567   1.272       .  A
C567       C1297   1.493       .  S
O568       Zr571   2.385       .  S
O568        C570   1.275       .  A
O569       Zr598   2.474       .  S
O569        C570   1.294       .  A
C570       C1154   1.477       .  S
Zr571       O572   2.435       .  S
Zr571       O573   2.440       .  S
Zr571       O577   2.386       .  S
Zr571       O578   2.380       .  S
Zr571       O601   2.334       .  S
Zr571       O603   2.384       .  S
O572        H615   0.988       .  S
O573        H614   0.990       .  S
O573        H618   0.989       .  S
Zr574       O575   2.431   1_455  S
Zr574       O576   2.434       .  S
Zr574       O578   2.440   1_455  S
Zr574       O577   2.292   1_455  S
Zr574       O602   2.334       .  S
Zr574       O604   2.391       .  S
O575        H616   0.990       .  S
O575        H619   0.990       .  S
O576        H609   0.990       .  S
O577       Zr597   2.359   1_655  S
O578       Zr598   2.401       .  S
O578        H605   0.966       .  S
O579       Zr591   2.392       .  S
O579        C581   1.265       .  A
O580       Zr598   2.495       .  S
O580        C581   1.284       .  A
C581       C1134   1.494       .  S
O582       Zr594   2.400       .  S
O582        C584   1.281       .  A
O583       Zr597   2.538       .  S
O583        C584   1.310       .  A
C584       C1164   1.492       .  S
O585       Zr594   2.568       .  S
O585        C587   1.311   1_455  A
O586       Zr598   2.334       .  S
O586        C587   1.272       .  A
C587       C1144   1.491       .  S
O588       Zr591   2.429       .  S
O588        C590   1.284   1_655  A
O589       Zr597   2.469       .  S
O589        C590   1.295       .  A
C590       C1204   1.477   1_565  S
Zr591       O592   2.437   1_655  S
Zr591       O593   2.434       .  S
Zr591       O599   2.394       .  S
Zr591       O600   2.350   1_655  S
Zr591       O603   2.357       .  S
Zr591       O601   2.395       .  S
O592        H612   0.987       .  S
O592        H617   0.989       .  S
O593        H613   0.990       .  S
Zr594       O595   2.436       .  S
Zr594       O596   2.436       .  S
Zr594       O600   2.423       .  S
Zr594       O599   2.316   1_455  S
Zr594       O604   2.322       .  S
Zr594       O602   2.404       .  S
O595        H611   0.990       .  S
O596        H610   0.990       .  S
O596        H620   0.990       .  S
Zr597       O600   2.402       .  S
Zr597       O602   2.414       .  S
Zr597       O603   2.392   1_455  S
Zr598       O599   2.422       .  S
Zr598       O601   2.387       .  S
Zr598       O604   2.390   1_655  S
O599        H607   0.962       .  S
O602        H606   0.965       .  S
O603        H608   0.963       .  S
O621       Zr633   2.409       .  S
O621        C623   1.265       .  A
O622       Zr659   2.490       .  S
O622        C623   1.291       .  A
C623       C1347   1.481       .  S
O624       Zr636   2.404       .  S
O624        C626   1.275       .  A
O625       Zr660   2.470       .  S
O625        C626   1.293       .  A
C626       C1127   1.478       .  S
O627       Zr636   2.513       .  S
O627        C629   1.303       .  A
O628       Zr659   2.445       .  S
O628        C629   1.292       .  A
C629       C1257   1.521       .  S
O630       Zr633   2.393       .  S
O630        C632   1.278       .  A
O631       Zr660   2.396       .  S
O631        C632   1.281       .  A
C632       C1224   1.444       .  S
Zr633       O634   2.434       .  S
Zr633       O635   2.437       .  S
Zr633       O639   2.378       .  S
Zr633       O640   2.354       .  S
Zr633       O663   2.366       .  S
Zr633       O665   2.354       .  S
O634        H677   0.989       .  S
O635        H676   0.990       .  S
O635        H680   0.990       .  S
Zr636       O637   2.435       .  S
Zr636       O638   2.434       .  S
Zr636       O640   2.418       .  S
Zr636       O639   2.337       .  S
Zr636       O664   2.345       .  S
Zr636       O666   2.392       .  S
O637        H678   0.990       .  S
O637        H681   0.990       .  S
O638        H671   0.990       .  S
O639       Zr659   2.383       .  S
O640       Zr660   2.408       .  S
O640        H667   0.966       .  S
O641       Zr653   2.382       .  S
O641        C643   1.261       .  A
O642       Zr660   2.508       .  S
O642        C643   1.285       .  A
C643       C1094   1.499       .  S
O644       Zr656   2.428       .  S
O644        C646   1.289       .  A
O645       Zr659   2.409       .  S
O645        C646   1.289       .  A
C646       C1217   1.454       .  S
O647       Zr656   2.622       .  S
O647        C649   1.322       .  A
O648       Zr660   2.319       .  S
O648        C649   1.271       .  A
C649       C1104   1.531       .  S
O650       Zr653   2.409       .  S
O650        C652   1.280       .  A
O651       Zr659   2.505       .  S
O651        C652   1.303       .  A
C652       C1114   1.500       .  S
Zr653       O654   2.439       .  S
Zr653       O655   2.433       .  S
Zr653       O661   2.387       .  S
Zr653       O662   2.339       .  S
Zr653       O665   2.349       .  S
Zr653       O663   2.390       .  S
O654        H674   0.987       .  S
O654        H679   0.989       .  S
O655        H675   0.990       .  S
Zr656       O657   2.436       .  S
Zr656       O658   2.434       .  S
Zr656       O662   2.431       .  S
Zr656       O661   2.321       .  S
Zr656       O666   2.317       .  S
Zr656       O664   2.411       .  S
O657        H673   0.990       .  S
O658        H672   0.990       .  S
O658        H682   0.990       .  S
Zr659       O662   2.414       .  S
Zr659       O664   2.427       .  S
Zr659       O665   2.387       .  S
Zr660       O661   2.401       .  S
Zr660       O663   2.383       .  S
Zr660       O666   2.384       .  S
O661        H669   0.964       .  S
O664        H668   0.965       .  S
O665        H670   0.960       .  S
O683       Zr695   2.394       .  S
O683        C685   1.261       .  A
O684       Zr721   2.551       .  S
O684        C685   1.299       .  A
C685       C1307   1.511       .  S
O686       Zr698   2.392       .  S
O686        C688   1.279       .  A
O687       Zr722   2.524       .  S
O687        C688   1.308       .  A
C688       C1117   1.495       .  S
O689       Zr698   2.583       .  S
O689        C691   1.317       .  A
O690       Zr721   2.314       .  S
O690        C691   1.271       .  A
C691       C1237   1.493       .  S
O692       Zr695   2.395       .  S
O692        C694   1.274       .  A
O693       Zr722   2.509       .  S
O693        C694   1.302       .  A
C694       C1167   1.489       .  S
Zr695       O696   2.436       .  S
Zr695       O697   2.437       .  S
Zr695       O701   2.378       .  S
Zr695       O702   2.384       .  S
Zr695       O725   2.345       .  S
Zr695       O727   2.385       .  S
O696        H739   0.988       .  S
O697        H738   0.990       .  S
O697        H742   0.990       .  S
Zr698       O699   2.431       .  S
Zr698       O700   2.434       .  S
Zr698       O702   2.443       .  S
Zr698       O701   2.285       .  S
Zr698       O726   2.338       .  S
Zr698       O728   2.392       .  S
O699        H740   0.990       .  S
O699        H743   0.990       .  S
O700        H733   0.990       .  S
O701       Zr721   2.357       .  S
O702       Zr722   2.413       .  S
O702        H729   0.966       .  S
O703       Zr715   2.392       .  S
O703        C705   1.265       .  A
O704       Zr722   2.519       .  S
O704        C705   1.287       .  A
C705       C1074   1.512       .  S
O706       Zr718   2.417       .  S
O706        C708   1.278       .  A
O707       Zr721   2.485       .  S
O707        C708   1.296       .  A
C708       C1157   1.489       .  S
O709       Zr718   2.572       .  S
O709        C711   1.313       .  A
O710       Zr722   2.337       .  S
O710        C711   1.274       .  A
C711       C1084   1.489       .  S
O712       Zr715   2.409       .  S
O712        C714   1.280       .  A
O713       Zr721   2.447       .  S
O713        C714   1.291       .  A
C714       C1124   1.468   1_565  S
Zr715       O716   2.438       .  S
Zr715       O717   2.433       .  S
Zr715       O723   2.387       .  S
Zr715       O724   2.344       .  S
Zr715       O727   2.355       .  S
Zr715       O725   2.391       .  S
O716        H736   0.987       .  S
O716        H741   0.988       .  S
O717        H737   0.990       .  S
Zr718       O719   2.434       .  S
Zr718       O720   2.434       .  S
Zr718       O724   2.420       .  S
Zr718       O723   2.314       .  S
Zr718       O728   2.326       .  S
Zr718       O726   2.404       .  S
O719        H735   0.990       .  S
O720        H734   0.990       .  S
O720        H744   0.990       .  S
Zr721       O724   2.395       .  S
Zr721       O726   2.421       .  S
Zr721       O727   2.389       .  S
Zr722       O723   2.427       .  S
Zr722       O725   2.392       .  S
Zr722       O728   2.396       .  S
O723        H731   0.961       .  S
O726        H730   0.966       .  S
O727        H732   0.964       .  S
O745       Zr757   2.542   1_455  S
O745        C747   1.309       .  A
O746       Zr783   2.302       .  S
O746        C747   1.269       .  A
C747       C1617   1.457       .  S
O748       Zr760   2.410       .  S
O748        C750   1.281       .  A
O749       Zr784   2.469       .  S
O749        C750   1.296       .  A
C750       C1034   1.497       .  S
O751       Zr760   2.418       .  S
O751        C753   1.270       .  A
O752       Zr783   2.534       .  S
O752        C753   1.292   1_455  A
C753       C1487   1.511       .  S
O754       Zr757   2.399   1_565  S
O754        C756   1.270       .  A
O755       Zr784   2.494   1_565  S
O755        C756   1.295       .  A
C756       C1057   1.487       .  S
Zr757       O758   2.433       .  S
Zr757       O759   2.435   1_645  S
Zr757       O763   2.293       .  S
Zr757       O764   2.437       .  S
Zr757       O787   2.388       .  S
Zr757       O789   2.346   1_655  S
O758        H801   0.990       .  S
O759        H800   0.990       .  S
O759        H804   0.990       .  S
Zr760       O761   2.438       .  S
Zr760       O762   2.437       .  S
Zr760       O764   2.367       .  S
Zr760       O763   2.367       .  S
Zr760       O788   2.373       .  S
Zr760       O790   2.353       .  S
O761        H802   0.989       .  S
O761        H805   0.989       .  S
O762        H795   0.990       .  S
O763       Zr783   2.364   1_655  S
O764       Zr784   2.405       .  S
O764        H791   0.964       .  S
O765       Zr777   2.567   1_655  S
O765        C767   1.312   1_545  A
O766       Zr784   2.335       .  S
O766        C767   1.276   1_545  A
C767       C1137   1.501       .  S
O768       Zr780   2.412       .  S
O768        C770   1.281   1_655  A
O769       Zr783   2.476       .  S
O769        C770   1.295       .  A
C770       C1064   1.496       .  S
O771       Zr780   2.400       .  S
O771        C773   1.265       .  A
O772       Zr784   2.499       .  S
O772        C773   1.284       .  A
C773       C1184   1.501       .  S
O774       Zr777   2.412       .  S
O774        C776   1.284       .  A
O775       Zr783   2.493       .  S
O775        C776   1.302       .  A
C776       C1047   1.490       .  S
Zr777       O778   2.436       .  S
Zr777       O779   2.434   1_545  S
Zr777       O785   2.310   1_455  S
Zr777       O786   2.428       .  S
Zr777       O789   2.390       .  S
Zr777       O787   2.330   1_455  S
O778        H798   0.990       .  S
O778        H803   0.990       .  S
O779        H799   0.990       .  S
Zr780       O781   2.426   1_655  S
Zr780       O782   2.437       .  S
Zr780       O786   2.368   1_655  S
Zr780       O785   2.390       .  S
Zr780       O790   2.387       .  S
Zr780       O788   2.351       .  S
O781        H797   0.989       .  S
O782        H796   0.989       .  S
O782        H806   0.988       .  S
Zr783       O786   2.386       .  S
Zr783       O788   2.389   1_455  S
Zr783       O789   2.409       .  S
Zr784       O785   2.411       .  S
Zr784       O787   2.399       .  S
Zr784       O790   2.395       .  S
O785        H793   0.958       .  S
O788        H792   0.963       .  S
O789        H794   0.965       .  S
O807       Zr819   2.525       .  S
O807        C809   1.303       .  A
O808       Zr845   2.404       .  S
O808        C809   1.283       .  A
C809       C1534   1.501       .  S
O810       Zr822   2.408       .  S
O810        C812   1.281       .  A
O811       Zr846   2.415       .  S
O811        C812   1.284       .  A
C812       C1014   1.477       .  S
O813       Zr822   2.403       .  S
O813        C815   1.273       .  A
O814       Zr845   2.461       .  S
O814        C815   1.283   1_455  A
C815       C1424   1.462       .  S
O816       Zr819   2.421       .  S
O816        C818   1.285   1_455  A
O817       Zr846   2.469       .  S
O817        C818   1.297       .  A
C818       C1067   1.492       .  S
Zr819       O820   2.434   1_455  S
Zr819       O821   2.437       .  S
Zr819       O825   2.323       .  S
Zr819       O826   2.412   1_455  S
Zr819       O849   2.390       .  S
Zr819       O851   2.359       .  S
O820        H863   0.990       .  S
O821        H862   0.990       .  S
O821        H866   0.990       .  S
Zr822       O823   2.438       .  S
Zr822       O824   2.436       .  S
Zr822       O826   2.366       .  S
Zr822       O825   2.363   1_655  S
Zr822       O850   2.363       .  S
Zr822       O852   2.357       .  S
O823        H864   0.990       .  S
O823        H867   0.990       .  S
O824        H857   0.990       .  S
O825       Zr845   2.382       .  S
O826       Zr846   2.404       .  S
O826        H853   0.966       .  S
O827       Zr839   2.609       .  S
O827        C829   1.322   1_455  A
O828       Zr846   2.337       .  S
O828        C829   1.271       .  A
C829       C1177   1.510       .  S
O830       Zr842   2.399       .  S
O830        C832   1.277   1_655  A
O831       Zr845   2.466       .  S
O831        C832   1.293       .  A
C832       C1054   1.474       .  S
O833       Zr842   2.387       .  S
O833        C835   1.263       .  A
O834       Zr846   2.504       .  S
O834        C835   1.284       .  A
C835       C1147   1.508       .  S
O836       Zr839   2.412       .  S
O836        C838   1.284       .  A
O837       Zr845   2.433       .  S
O837        C838   1.291       .  A
C838       C1027   1.450       .  S
Zr839       O840   2.436       .  S
Zr839       O841   2.434       .  S
Zr839       O847   2.298   1_455  S
Zr839       O848   2.435       .  S
Zr839       O851   2.419       .  S
Zr839       O849   2.328       .  S
O840        H860   0.990       .  S
O840        H865   0.990       .  S
O841        H861   0.990       .  S
Zr842       O843   2.431   1_655  S
Zr842       O844   2.440       .  S
Zr842       O848   2.364   1_655  S
Zr842       O847   2.383       .  S
Zr842       O852   2.393       .  S
Zr842       O850   2.353       .  S
O843        H859   0.990       .  S
O844        H858   0.989       .  S
O844        H868   0.989       .  S
Zr845       O848   2.397       .  S
Zr845       O850   2.380   1_455  S
Zr845       O851   2.416       .  S
Zr846       O847   2.406       .  S
Zr846       O849   2.376   1_655  S
Zr846       O852   2.386       .  S
O847        H855   0.960   1_655  S
O850        H854   0.964       .  S
O851        H856   0.965       .  S
O869       Zr881   2.561       .  S
O869        C871   1.311       .  A
O870       Zr907   2.339       .  S
O870        C871   1.275       .  A
C871       C1474   1.490       .  S
O872       Zr884   2.397       .  S
O872        C874   1.269       .  A
O873       Zr908   2.486       .  S
O873        C874   1.293       .  A
C874       C1044   1.500       .  S
O875       Zr884   2.400       .  S
O875        C877   1.263       .  A
O876       Zr907   2.529       .  S
O876        C877   1.296       .  A
C877       C1627   1.496       .  S
O878       Zr881   2.409   1_565  S
O878        C880   1.282       .  A
O879       Zr908   2.529   1_565  S
O879        C880   1.309       .  A
C880        C997   1.498       .  S
Zr881       O882   2.435       .  S
Zr881       O883   2.437   1_545  S
Zr881       O887   2.306       .  S
Zr881       O888   2.422       .  S
Zr881       O911   2.397       .  S
Zr881       O913   2.347       .  S
O882        H925   0.990   1_545  S
O883        H924   0.990       .  S
O883        H928   0.990       .  S
Zr884       O885   2.426       .  S
Zr884       O886   2.434       .  S
Zr884       O888   2.373       .  S
Zr884       O887   2.375       .  S
Zr884       O912   2.379       .  S
Zr884       O914   2.356       .  S
O885        H926   0.990       .  S
O885        H929   0.989       .  S
O886        H919   0.990       .  S
O887       Zr907   2.373       .  S
O888       Zr908   2.411       .  S
O888        H915   0.966       .  S
O889       Zr901   2.598   1_565  S
O889        C891   1.318       .  A
O890       Zr908   2.324   1_565  S
O890        C891   1.271       .  A
C891       C1077   1.494       .  S
O892       Zr904   2.399       .  S
O892        C894   1.277       .  A
O893       Zr907   2.454       .  S
O893        C894   1.292       .  A
C894       C1007   1.458       .  S
O895       Zr904   2.379       .  S
O895        C897   1.261       .  A
O896       Zr908   2.535       .  S
O896        C897   1.291       .  A
C897       C1107   1.525       .  S
O898       Zr901   2.414       .  S
O898        C900   1.280       .  A
O899       Zr907   2.484       .  S
O899        C900   1.297       .  A
C900       C1037   1.492       .  S
Zr901       O902   2.435       .  S
Zr901       O903   2.434       .  S
Zr901       O909   2.297       .  S
Zr901       O910   2.427       .  S
Zr901       O913   2.403       .  S
Zr901       O911   2.321       .  S
O902        H922   0.990       .  S
O902        H927   0.990       .  S
O903        H923   0.990   1_545  S
Zr904       O905   2.430       .  S
Zr904       O906   2.440       .  S
Zr904       O910   2.357       .  S
Zr904       O909   2.391       .  S
Zr904       O914   2.391       .  S
Zr904       O912   2.345       .  S
O905        H921   0.990       .  S
O906        H920   0.989       .  S
O906        H930   0.989       .  S
Zr907       O910   2.392       .  S
Zr907       O912   2.386       .  S
Zr907       O913   2.420       .  S
Zr908       O909   2.417       .  S
Zr908       O911   2.398       .  S
Zr908       O914   2.395       .  S
O909        H917   0.961       .  S
O912        H916   0.963       .  S
O913        H918   0.966       .  S
O931       Zr943   2.477       .  S
O931        C933   1.293       .  A
O932       Zr969   2.419       .  S
O932        C933   1.289       .  A
C933       C1417   1.478       .  S
O934       Zr946   2.405       .  S
O934        C936   1.281       .  A
O935       Zr970   2.419       .  S
O935        C936   1.286       .  A
C936       C1024   1.453       .  S
O937       Zr946   2.436       .  S
O937        C939   1.281       .  A
O938       Zr969   2.480       .  S
O938        C939   1.291       .  A
C939       C1547   1.482       .  S
O940       Zr943   2.369       .  S
O940        C942   1.275       .  A
O941       Zr970   2.473       .  S
O941        C942   1.294       .  A
C942       C1004   1.461       .  S
Zr943       O944   2.440       .  S
Zr943       O945   2.439       .  S
Zr943       O949   2.314       .  S
Zr943       O950   2.405       .  S
Zr943       O973   2.363       .  S
Zr943       O975   2.355       .  S
O944        H987   0.990       .  S
O945        H986   0.990       .  S
O945        H990   0.990       .  S
Zr946       O947   2.437       .  S
Zr946       O948   2.434       .  S
Zr946       O950   2.379       .  S
Zr946       O949   2.343       .  S
Zr946       O974   2.371       .  S
Zr946       O976   2.366       .  S
O947        H988   0.990       .  S
O947        H991   0.990       .  S
O948        H981   0.990       .  S
O949       Zr969   2.358       .  S
O950       Zr970   2.406       .  S
O950        H977   0.966       .  S
O951       Zr963   2.574       .  S
O951        C953   1.313       .  A
O952       Zr970   2.330       .  S
O952        C953   1.272       .  A
C953       C1097   1.503       .  S
O954       Zr966   2.408       .  S
O954        C956   1.269       .  A
O955       Zr969   2.498       .  S
O955        C956   1.294       .  A
C956        C994   1.509       .  S
O957       Zr966   2.406       .  S
O957        C959   1.268       .  A
O958       Zr970   2.478       .  S
O958        C959   1.283       .  A
C959       C1087   1.491       .  S
O960       Zr963   2.430       .  S
O960        C962   1.288       .  A
O961       Zr969   2.424       .  S
O961        C962   1.290       .  A
C962       C1017   1.477       .  S
Zr963       O964   2.436       .  S
Zr963       O965   2.433       .  S
Zr963       O971   2.327       .  S
Zr963       O972   2.410       .  S
Zr963       O975   2.393       .  S
Zr963       O973   2.324       .  S
O964        H984   0.990       .  S
O964        H989   0.990       .  S
O965        H985   0.990       .  S
Zr966       O967   2.433       .  S
Zr966       O968   2.434       .  S
Zr966       O972   2.376       .  S
Zr966       O971   2.391       .  S
Zr966       O976   2.375       .  S
Zr966       O974   2.389       .  S
O967        H983   0.990       .  S
O968        H982   0.990       .  S
O968        H992   0.990       .  S
Zr969       O972   2.406       .  S
Zr969       O974   2.406       .  S
Zr969       O975   2.416       .  S
Zr970       O971   2.408       .  S
Zr970       O973   2.376       .  S
Zr970       O976   2.382       .  S
O971        H979   0.961       .  S
O974        H978   0.965       .  S
O975        H980   0.965       .  S
C993        C994   1.407       .  A
C993        C998   1.411       .  A
C993       H1000   1.083       .  S
C994        C995   1.419       .  A
C995        C996   1.409       .  A
C995       F1002   1.357       .  S
C996        C997   1.403       .  A
C996       H1001   1.082       .  S
C997        C998   1.415       .  A
C998        F999   1.358       .  S
C1003      C1004   1.396       .  A
C1003      C1008   1.399       .  A
C1003      H1010   1.083       .  S
C1004      C1005   1.414       .  A
C1005      C1006   1.391       .  A
C1005      F1012   1.359       .  S
C1006      C1007   1.391       .  A
C1006      H1011   1.084       .  S
C1007      C1008   1.411       .  A
C1008      F1009   1.358       .  S
C1013      C1014   1.408       .  A
C1013      C1018   1.389       .  A
C1013      H1020   1.083       .  S
C1014      C1015   1.406       .  A
C1015      C1016   1.396       .  A
C1015      F1022   1.357       .  S
C1016      C1017   1.409       .  A
C1016      H1021   1.083       .  S
C1017      C1018   1.406       .  A
C1018      F1019   1.358       .  S
C1023      C1024   1.403       .  A
C1023      C1028   1.397       .  A
C1023      H1030   1.084       .  S
C1024      C1025   1.400       .  A
C1025      C1026   1.387       .  A
C1025      F1032   1.358       .  S
C1026      C1027   1.399       .  A
C1026      H1031   1.081       .  S
C1027      C1028   1.403       .  A
C1028      F1029   1.357       .  S
C1033      C1034   1.417       .  A
C1033      C1038   1.401       .  A
C1033      H1040   1.083       .  S
C1034      C1035   1.404       .  A
C1035      C1036   1.402       .  A
C1035      F1042   1.357       .  S
C1036      C1037   1.414       .  A
C1036      H1041   1.082       .  S
C1037      C1038   1.402       .  A
C1038      F1039   1.357       .  S
C1043      C1044   1.405       .  A
C1043      C1048   1.408       .  A
C1043      H1050   1.083       .  S
C1044      C1045   1.421       .  A
C1045      C1046   1.398       .  A
C1045      F1052   1.356       .  S
C1046      C1047   1.398       .  A
C1046      H1051   1.083       .  S
C1047      C1048   1.416       .  A
C1048      F1049   1.357       .  S
C1053      C1054   1.404   1_655  A
C1053      C1058   1.401       .  A
C1053      H1060   1.084       .  S
C1054      C1055   1.407       .  A
C1055      C1056   1.402   1_455  A
C1055      F1062   1.357       .  S
C1056      C1057   1.404       .  A
C1056      H1061   1.079       .  S
C1057      C1058   1.412       .  A
C1058      F1059   1.358       .  S
C1063      C1064   1.415   1_655  A
C1063      C1068   1.391       .  A
C1063      H1070   1.080       .  S
C1064      C1065   1.405       .  A
C1065      C1066   1.408       .  A
C1065      F1072   1.357       .  S
C1066      C1067   1.417   1_455  A
C1066      H1071   1.083       .  S
C1067      C1068   1.402       .  A
C1068      F1069   1.358       .  S
C1073      C1074   1.401       .  A
C1073      C1078   1.394       .  A
C1073      H1080   1.083       .  S
C1074      C1075   1.420       .  A
C1075      C1076   1.423       .  A
C1075      F1082   1.352       .  S
C1076      C1077   1.413       .  A
C1076      H1081   1.082       .  S
C1077      C1078   1.407       .  A
C1078      F1079   1.350       .  S
C1083      C1084   1.409       .  A
C1083      C1088   1.393       .  A
C1083      H1090   1.079       .  S
C1084      C1085   1.408       .  A
C1085      C1086   1.416       .  A
C1085      F1092   1.356       .  S
C1086      C1087   1.415       .  A
C1086      H1091   1.082       .  S
C1087      C1088   1.401       .  A
C1088      F1089   1.358       .  S
C1093      C1094   1.415       .  A
C1093      C1098   1.424       .  A
C1093      H1100   1.082       .  S
C1094      C1095   1.404       .  A
C1095      C1096   1.394       .  A
C1095      F1102   1.359       .  S
C1096      C1097   1.411       .  A
C1096      H1101   1.084       .  S
C1097      C1098   1.412       .  A
C1098      F1099   1.355       .  S
C1103      C1104   1.418       .  A
C1103      C1108   1.397       .  A
C1103      H1110   1.083       .  S
C1104      C1105   1.416       .  A
C1105      C1106   1.436       .  A
C1105      F1112   1.356       .  S
C1106      C1107   1.427       .  A
C1106      H1111   1.081       .  S
C1107      C1108   1.403       .  A
C1108      F1109   1.359       .  S
C1113      C1114   1.419       .  A
C1113      C1118   1.403       .  A
C1113      H1120   1.083       .  S
C1114      C1115   1.406       .  A
C1115      C1116   1.406       .  A
C1115      F1122   1.357       .  S
C1116      C1117   1.416       .  A
C1116      H1121   1.083       .  S
C1117      C1118   1.399       .  A
C1118      F1119   1.354       .  S
C1123      C1124   1.401       .  A
C1123      C1128   1.399       .  A
C1123      H1130   1.084       .  S
C1124      C1125   1.406       .  A
C1125      C1126   1.394       .  A
C1125      F1132   1.358       .  S
C1126      C1127   1.403       .  A
C1126      H1131   1.080       .  S
C1127      C1128   1.412       .  A
C1128      F1129   1.358       .  S
C1133      C1134   1.415       .  A
C1133      C1138   1.420       .  A
C1133      H1140   1.082       .  S
C1134      C1135   1.402       .  A
C1135      C1136   1.393       .  A
C1135      F1142   1.359       .  S
C1136      C1137   1.411       .  A
C1136      H1141   1.084       .  S
C1137      C1138   1.410       .  A
C1138      F1139   1.355   1_655  S
C1143      C1144   1.409       .  A
C1143      C1148   1.421       .  A
C1143      H1150   1.082   1_655  S
C1144      C1145   1.408       .  A
C1145      C1146   1.392       .  A
C1145      F1152   1.355       .  S
C1146      C1147   1.401       .  A
C1146      H1151   1.083       .  S
C1147      C1148   1.423       .  A
C1148      F1149   1.353       .  S
C1153      C1154   1.403       .  A
C1153      C1158   1.407       .  A
C1153      H1160   1.083       .  S
C1154      C1155   1.409       .  A
C1155      C1156   1.400       .  A
C1155      F1162   1.358       .  S
C1156      C1157   1.403       .  A
C1156      H1161   1.083       .  S
C1157      C1158   1.414       .  A
C1158      F1159   1.357       .  S
C1163      C1164   1.407       .  A
C1163      C1168   1.410       .  A
C1163      H1170   1.083       .  S
C1164      C1165   1.412       .  A
C1165      C1166   1.410       .  A
C1165      F1172   1.357       .  S
C1166      C1167   1.407       .  A
C1166      H1171   1.083       .  S
C1167      C1168   1.410       .  A
C1168      F1169   1.357       .  S
C1173      C1174   1.403       .  A
C1173      C1178   1.395       .  A
C1173      H1180   1.084       .  S
C1174      C1175   1.419       .  A
C1175      C1176   1.431       .  A
C1175      F1182   1.356       .  S
C1176      C1177   1.418       .  A
C1176      H1181   1.083   1_655  S
C1177      C1178   1.412       .  A
C1178      F1179   1.350       .  S
C1183      C1184   1.417       .  A
C1183      C1188   1.421       .  A
C1183      H1190   1.082       .  S
C1184      C1185   1.401       .  A
C1185      C1186   1.393       .  A
C1185      F1192   1.358       .  S
C1186      C1187   1.411       .  A
C1186      H1191   1.084       .  S
C1187      C1188   1.414       .  A
C1188      F1189   1.354   1_655  S
C1193      C1194   1.406       .  A
C1193      C1198   1.402   1_455  A
C1193      H1200   1.083       .  S
C1194      C1195   1.416       .  A
C1195      C1196   1.405       .  A
C1195      F1202   1.358       .  S
C1196      C1197   1.402   1_455  A
C1196      H1201   1.081   1_455  S
C1197      C1198   1.411       .  A
C1198      F1199   1.358       .  S
C1203      C1204   1.403       .  A
C1203      C1208   1.401   1_455  A
C1203      H1210   1.084       .  S
C1204      C1205   1.406   1_455  A
C1205      C1206   1.405       .  A
C1205      F1212   1.358       .  S
C1206      C1207   1.408       .  A
C1206      H1211   1.083       .  S
C1207      C1208   1.405       .  A
C1208      F1209   1.352   1_655  S
C1213      C1214   1.399       .  A
C1213      C1218   1.384       .  A
C1213      H1220   1.084       .  S
C1214      C1215   1.405       .  A
C1215      C1216   1.390       .  A
C1215      F1222   1.358       .  S
C1216      C1217   1.401       .  A
C1216      H1221   1.083       .  S
C1217      C1218   1.405       .  A
C1218      F1219   1.358       .  S
C1223      C1224   1.399       .  A
C1223      C1228   1.392       .  A
C1223      H1230   1.084       .  S
C1224      C1225   1.401       .  A
C1225      C1226   1.382       .  A
C1225      F1232   1.359       .  S
C1226      C1227   1.395       .  A
C1226      H1231   1.077       .  S
C1227      C1228   1.405       .  A
C1228      F1229   1.358       .  S
C1233      C1234   1.421       .  A
C1233      C1238   1.404       .  A
C1233      H1240   1.083       .  S
C1234      C1235   1.399       .  A
C1235      C1236   1.407       .  A
C1235      F1242   1.357       .  S
C1236      C1237   1.421       .  A
C1236      H1241   1.083       .  S
C1237      C1238   1.398       .  A
C1238      F1239   1.357       .  S
C1243      C1244   1.408       .  A
C1243      C1248   1.415       .  A
C1243      H1250   1.082       .  S
C1244      C1245   1.420       .  A
C1245      C1246   1.417       .  A
C1245      F1252   1.357       .  S
C1246      C1247   1.407       .  A
C1246      H1251   1.082       .  S
C1247      C1248   1.423       .  A
C1248      F1249   1.357       .  S
C1253      C1254   1.414       .  A
C1253      C1258   1.409       .  A
C1253      H1260   1.083       .  S
C1254      C1255   1.410       .  A
C1255      C1256   1.419       .  A
C1255      F1262   1.357       .  S
C1256      C1257   1.418       .  A
C1256      H1261   1.083       .  S
C1257      C1258   1.411       .  A
C1258      F1259   1.357       .  S
C1263      C1264   1.411       .  A
C1263      C1268   1.400       .  A
C1263      H1270   1.083       .  S
C1264      C1265   1.408       .  A
C1265      C1266   1.402       .  A
C1265      F1272   1.357       .  S
C1266      C1267   1.408       .  A
C1266      H1271   1.084       .  S
C1267      C1268   1.404       .  A
C1268      F1269   1.358   1_655  S
C1273      C1274   1.409       .  A
C1273      C1278   1.410       .  A
C1273      H1280   1.083       .  S
C1274      C1275   1.412       .  A
C1275      C1276   1.394       .  A
C1275      F1282   1.358       .  S
C1276      C1277   1.404       .  A
C1276      H1281   1.084       .  S
C1277      C1278   1.411       .  A
C1278      F1279   1.357       .  S
C1283      C1284   1.404       .  A
C1283      C1288   1.403       .  A
C1283      H1290   1.083       .  S
C1284      C1285   1.414       .  A
C1285      C1286   1.402       .  A
C1285      F1292   1.358       .  S
C1286      C1287   1.401       .  A
C1286      H1291   1.084       .  S
C1287      C1288   1.411       .  A
C1288      F1289   1.358       .  S
C1293      C1294   1.419       .  A
C1293      C1298   1.406       .  A
C1293      H1300   1.084       .  S
C1294      C1295   1.400       .  A
C1295      C1296   1.407       .  A
C1295      F1302   1.357       .  S
C1296      C1297   1.418       .  A
C1296      H1301   1.083       .  S
C1297      C1298   1.400       .  A
C1298      F1299   1.357       .  S
C1303      C1304   1.407       .  A
C1303      C1308   1.407       .  A
C1303      H1310   1.083       .  S
C1304      C1305   1.419       .  A
C1305      C1306   1.416       .  A
C1305      F1312   1.357       .  S
C1306      C1307   1.409       .  A
C1306      H1311   1.083       .  S
C1307      C1308   1.416       .  A
C1308      F1309   1.356       .  S
C1313      C1314   1.411       .  A
C1313      C1318   1.408       .  A
C1313      H1320   1.083       .  S
C1314      C1315   1.403       .  A
C1315      C1316   1.401       .  A
C1315      F1322   1.356       .  S
C1316      C1317   1.410       .  A
C1316      H1321   1.083       .  S
C1317      C1318   1.406       .  A
C1318      F1319   1.357       .  S
C1323      C1324   1.412       .  A
C1323      C1328   1.398       .  A
C1323      H1330   1.084       .  S
C1324      C1325   1.403       .  A
C1325      C1326   1.403       .  A
C1325      F1332   1.355       .  S
C1326      C1327   1.410       .  A
C1326      H1331   1.084       .  S
C1327      C1328   1.401       .  A
C1328      F1329   1.358       .  S
C1333      C1334   1.407       .  A
C1333      C1338   1.402       .  A
C1333      H1340   1.084       .  S
C1334      C1335   1.403       .  A
C1335      C1336   1.403       .  A
C1335      F1342   1.357       .  S
C1336      C1337   1.410       .  A
C1336      H1341   1.079       .  S
C1337      C1338   1.409       .  A
C1338      F1339   1.357       .  S
C1343      C1344   1.412       .  A
C1343      C1348   1.403       .  A
C1343      H1350   1.083       .  S
C1344      C1345   1.409       .  A
C1345      C1346   1.401       .  A
C1345      F1352   1.357       .  S
C1346      C1347   1.408       .  A
C1346      H1351   1.084       .  S
C1347      C1348   1.405       .  A
C1348      F1349   1.357       .  S
C1353      C1354   1.397       .  A
C1353      C1358   1.388       .  A
C1353      H1360   1.084       .  S
C1354      C1355   1.402       .  A
C1355      C1356   1.392       .  A
C1355      F1362   1.358       .  S
C1356      C1357   1.403       .  A
C1356      H1361   1.084       .  S
C1357      C1358   1.402       .  A
C1358      F1359   1.350       .  S
C1363      C1364   1.402       .  A
C1363      C1368   1.402   1_455  A
C1363      H1370   1.084       .  S
C1364      C1365   1.409       .  A
C1365      C1366   1.396   1_455  A
C1365      F1372   1.358       .  S
C1366      C1367   1.398       .  A
C1366      H1371   1.077       .  S
C1367      C1368   1.411       .  A
C1368      F1369   1.358       .  S
C1373      C1374   1.411       .  A
C1373      C1378   1.401       .  A
C1373      H1380   1.083       .  S
C1374      C1375   1.408       .  A
C1375      C1376   1.388       .  A
C1375      F1382   1.358       .  S
C1376      C1377   1.397       .  A
C1376      H1381   1.082       .  S
C1377      C1378   1.400       .  A
C1378      F1379   1.357       .  S
C1383      C1384   1.404       .  A
C1383      C1388   1.406       .  A
C1383      H1390   1.083       .  S
C1384      C1385   1.399       .  A
C1385      C1386   1.388       .  A
C1385      F1392   1.350       .  S
C1386      C1387   1.406       .  A
C1386      H1391   1.083       .  S
C1387      C1388   1.412       .  A
C1388      F1389   1.357       .  S
C1393      C1394   1.394       .  A
C1393      C1398   1.391   1_556  A
C1393      H1400   1.084       .  S
C1394      C1395   1.416   1_556  A
C1395      C1396   1.407       .  A
C1395      F1402   1.357   1_554  S
C1396      C1397   1.402       .  A
C1396      H1401   1.083       .  S
C1397      C1398   1.417       .  A
C1398      F1399   1.355       .  S
C1403      C1404   1.402       .  A
C1403      C1408   1.394       .  A
C1403      H1410   1.084       .  S
C1404      C1405   1.405       .  A
C1405      C1406   1.401       .  A
C1405      F1412   1.358       .  S
C1406      C1407   1.405   1_554  A
C1406      H1411   1.082       .  S
C1407      C1408   1.405   1_556  A
C1408      F1409   1.358   1_554  S
C1413      C1414   1.411       .  A
C1413      C1418   1.395       .  A
C1413      H1420   1.082       .  S
C1414      C1415   1.410       .  A
C1415      C1416   1.406       .  A
C1415      F1422   1.357       .  S
C1416      C1417   1.406       .  A
C1416      H1421   1.082       .  S
C1417      C1418   1.400       .  A
C1418      F1419   1.357       .  S
C1423      C1424   1.408       .  A
C1423      C1428   1.400       .  A
C1423      H1430   1.080       .  S
C1424      C1425   1.399       .  A
C1425      C1426   1.397       .  A
C1425      F1432   1.357   1_655  S
C1426      C1427   1.409       .  A
C1426      H1431   1.084       .  S
C1427      C1428   1.399       .  A
C1428      F1429   1.357       .  S
C1433      C1434   1.402   1_545  A
C1433      C1438   1.401   1_545  A
C1433      H1440   1.084       .  S
C1434      C1435   1.407       .  A
C1435      C1436   1.406       .  A
C1435      F1442   1.358       .  S
C1436      C1437   1.408   1_554  A
C1436      H1441   1.083       .  S
C1437      C1438   1.413   1_556  A
C1438      F1439   1.357   1_564  S
C1443      C1444   1.405       .  A
C1443      C1448   1.399   1_556  A
C1443      H1450   1.083       .  S
C1444      C1445   1.405   1_556  A
C1445      C1446   1.396       .  A
C1445      F1452   1.356       .  S
C1446      C1447   1.401       .  A
C1446      H1451   1.084       .  S
C1447      C1448   1.403       .  A
C1448      F1449   1.357       .  S
C1453      C1454   1.399       .  A
C1453      C1458   1.386       .  A
C1453      H1460   1.083       .  S
C1454      C1455   1.411       .  A
C1455      C1456   1.384       .  A
C1455      F1462   1.358       .  S
C1456      C1457   1.398       .  A
C1456      H1461   1.084       .  S
C1457      C1458   1.407       .  A
C1458      F1459   1.358       .  S
C1463      C1464   1.399       .  A
C1463      C1468   1.391       .  A
C1463      H1470   1.083       .  S
C1464      C1465   1.412       .  A
C1465      C1466   1.385       .  A
C1465      F1472   1.359       .  S
C1466      C1467   1.395       .  A
C1466      H1471   1.084       .  S
C1467      C1468   1.409       .  A
C1468      F1469   1.358       .  S
C1473      C1474   1.410       .  A
C1473      C1478   1.417       .  A
C1473      H1480   1.082       .  S
C1474      C1475   1.406       .  A
C1475      C1476   1.396       .  A
C1475      F1482   1.357       .  S
C1476      C1477   1.406       .  A
C1476      H1481   1.082       .  S
C1477      C1478   1.417       .  A
C1478      F1479   1.357       .  S
C1483      C1484   1.407       .  A
C1483      C1488   1.420       .  A
C1483      H1490   1.079       .  S
C1484      C1485   1.403       .  A
C1485      C1486   1.390       .  A
C1485      F1492   1.346       .  S
C1486      C1487   1.401       .  A
C1486      H1491   1.083       .  S
C1487      C1488   1.420       .  A
C1488      F1489   1.349   1_655  S
C1493      C1494   1.410   1_556  A
C1493      C1498   1.400       .  A
C1493      H1500   1.081       .  S
C1494      C1495   1.409       .  A
C1495      C1496   1.405       .  A
C1495      F1502   1.357       .  S
C1496      C1497   1.411   1_554  A
C1496      H1501   1.083       .  S
C1497      C1498   1.401       .  A
C1498      F1499   1.354       .  S
C1503      C1504   1.419       .  A
C1503      C1508   1.420       .  A
C1503      H1510   1.082       .  S
C1504      C1505   1.406   1_554  A
C1505      C1506   1.402       .  A
C1505      F1512   1.358       .  S
C1506      C1507   1.409       .  A
C1506      H1511   1.081       .  S
C1507      C1508   1.407   1_556  A
C1508      F1509   1.356       .  S
C1513      C1514   1.400       .  A
C1513      C1518   1.380       .  A
C1513      H1520   1.083       .  S
C1514      C1515   1.406       .  A
C1515      C1516   1.392       .  A
C1515      F1522   1.358       .  S
C1516      C1517   1.403       .  A
C1516      H1521   1.083       .  S
C1517      C1518   1.406       .  A
C1518      F1519   1.358       .  S
C1523      C1524   1.400   1_455  A
C1523      C1528   1.382       .  A
C1523      H1530   1.084       .  S
C1524      C1525   1.399   1_655  A
C1525      C1526   1.385       .  A
C1525      F1532   1.358   1_455  S
C1526      C1527   1.404       .  A
C1526      H1531   1.084       .  S
C1527      C1528   1.404       .  A
C1528      F1529   1.358       .  S
C1533      C1534   1.410       .  A
C1533      C1538   1.418       .  A
C1533      H1540   1.083       .  S
C1534      C1535   1.408       .  A
C1535      C1536   1.400       .  A
C1535      F1542   1.354       .  S
C1536      C1537   1.408       .  A
C1536      H1541   1.083       .  S
C1537      C1538   1.415       .  A
C1538      F1539   1.355       .  S
C1543      C1544   1.396       .  A
C1543      C1548   1.404       .  A
C1543      H1550   1.083       .  S
C1544      C1545   1.418       .  A
C1545      C1546   1.400       .  A
C1545      F1552   1.351       .  S
C1546      C1547   1.393       .  A
C1546      H1551   1.083       .  S
C1547      C1548   1.411       .  A
C1548      F1549   1.346       .  S
C1553      C1554   1.410   1_556  A
C1553      C1558   1.401       .  A
C1553      H1560   1.084       .  S
C1554      C1555   1.396   1_554  A
C1555      C1556   1.395       .  A
C1555      F1562   1.358   1_556  S
C1556      C1557   1.416   1_545  A
C1556      H1561   1.083       .  S
C1557      C1558   1.405   1_565  A
C1558      F1559   1.357       .  S
C1563      C1564   1.401   1_554  A
C1563      C1568   1.392       .  A
C1563      H1570   1.084   1_554  S
C1564      C1565   1.403       .  A
C1565      C1566   1.393   1_556  A
C1565      F1572   1.358       .  S
C1566      C1567   1.403       .  A
C1566      H1571   1.084       .  S
C1567      C1568   1.403       .  A
C1568      F1569   1.356       .  S
C1573      C1574   1.397       .  A
C1573      C1578   1.383       .  A
C1573      H1580   1.084       .  S
C1574      C1575   1.406       .  A
C1575      C1576   1.392       .  A
C1575      F1582   1.357       .  S
C1576      C1577   1.397       .  A
C1576      H1581   1.084       .  S
C1577      C1578   1.403       .  A
C1578      F1579   1.358       .  S
C1583      C1584   1.410       .  A
C1583      C1588   1.403       .  A
C1583      H1590   1.083       .  S
C1584      C1585   1.414       .  A
C1585      C1586   1.384       .  A
C1585      F1592   1.358       .  S
C1586      C1587   1.395       .  A
C1586      H1591   1.085       .  S
C1587      C1588   1.402       .  A
C1588      F1589   1.357       .  S
C1593      C1594   1.406       .  A
C1593      C1598   1.401       .  A
C1593      H1600   1.083       .  S
C1594      C1595   1.415       .  A
C1595      C1596   1.405       .  A
C1595      F1602   1.357       .  S
C1596      C1597   1.402       .  A
C1596      H1601   1.084       .  S
C1597      C1598   1.407       .  A
C1598      F1599   1.358       .  S
C1603      C1604   1.413       .  A
C1603      C1608   1.411   1_655  A
C1603      H1610   1.079       .  S
C1604      C1605   1.397   1_655  A
C1605      C1606   1.398       .  A
C1605      F1612   1.358   1_455  S
C1606      C1607   1.413       .  A
C1606      H1611   1.079       .  S
C1607      C1608   1.404       .  A
C1608      F1609   1.357       .  S
C1613      C1614   1.412       .  A
C1613      C1618   1.396       .  A
C1613      H1620   1.084       .  S
C1614      C1615   1.397       .  A
C1615      C1616   1.394       .  A
C1615      F1622   1.358       .  S
C1616      C1617   1.411       .  A
C1616      H1621   1.081       .  S
C1617      C1618   1.398       .  A
C1618      F1619   1.358       .  S
C1623      C1624   1.411       .  A
C1623      C1628   1.407       .  A
C1623      H1630   1.083       .  S
C1624      C1625   1.410       .  A
C1625      C1626   1.404       .  A
C1625      F1632   1.353       .  S
C1626      C1627   1.411       .  A
C1626      H1631   1.083       .  S
C1627      C1628   1.409       .  A
C1628      F1629   1.352       .  S
