geometry optimzed in LAMMPS
_audit_creation_date              2020-12-01 
_audit_creation_method            'lammps2cif' 
_symmetry_space_group_name_H-M    'P1' 
_symmetry_Int_Tables_number       1 
_symmetry_cell_setting            triclinic 
loop_ 
_symmetry_equiv_pos_as_xyz 
  x,y,z 
_cell_length_a                    37.18983407 
_cell_length_b                    37.108261498016404 
_cell_length_c                    37.29469181603483 
_cell_angle_alpha                 89.99694569963577 
_cell_angle_beta                  89.9519897594902 
_cell_angle_gamma                 90.00119094648552 
loop_ 
_atom_site_label 
_atom_site_type_symbol 
_atom_site_fract_x 
_atom_site_fract_y 
_atom_site_fract_z 
_atom_site_charge 
O1          O  0.18442508  0.18026100  0.43238527    -0.75100
O2          O  0.21728537  0.21213476  0.39140371    -0.54000
C3          C  0.19330766  0.18883221  0.40008863     0.78600
O4          O  0.18575561  0.32304174  0.05404266    -0.59700
O5          O  0.21772263  0.29037462  0.09505522    -0.52700
C6          C  0.19439610  0.31430814  0.08631858     0.70600
O7          O  0.18462228  0.32213493  0.43278344    -0.74300
O8          O  0.21708887  0.29001886  0.39168702    -0.54800
C9          C  0.19336514  0.31358056  0.40045280     0.76600
O10         O  0.18543734  0.17887219  0.05406481    -0.59400
O11         O  0.21726030  0.21162435  0.09513326    -0.52500
C12         C  0.19387333  0.18775204  0.08638026     0.73200
Zr13       Zr  0.20294962  0.19689428  0.99329122     2.54700
O14         O  0.13751620  0.19696650  0.99392581    -0.80000
O15         O  0.20551456  0.13132231  0.99327815    -0.93400
Zr16       Zr  0.20285319  0.30451248  0.99340972     2.64700
O17         O  0.13754439  0.30182861  0.49365720    -0.98300
O18         O  0.20368415  0.37009634  0.99222488    -0.80400
O19         O  0.20211893  0.25079678  0.45887249    -0.83800
O20         O  0.20204090  0.25068034  0.02774598    -2.18500
O21         O  0.32795597  0.17940263  0.05415684    -0.67200
O22         O  0.29560615  0.21167294  0.09522208    -0.51700
C23         C  0.31934967  0.18814884  0.08646786     0.71600
O24         O  0.32919588  0.32113226  0.43273437    -0.60100
O25         O  0.29556625  0.29030971  0.39163968    -0.52000
C26         C  0.31991985  0.31316911  0.40043797     0.73400
O27         O  0.32805854  0.32214606  0.05392329    -0.71500
O28         O  0.29517810  0.29049756  0.09505260    -0.50100
C29         C  0.31909551  0.31384268  0.08623069     0.74800
O30         O  0.32834870  0.17979356  0.43264807    -0.66800
O31         O  0.29636492  0.21248875  0.39164322    -0.54000
C32         C  0.32000290  0.18887044  0.40038037     0.73200
Zr33       Zr  0.31016130  0.19686324  0.49337633     2.77500
O34         O  0.37563022  0.19770850  0.49296254    -0.97500
O35         O  0.30868921  0.13128878  0.49379263    -0.78400
Zr36       Zr  0.31030277  0.30434208  0.49332064     2.70100
O37         O  0.37564498  0.30418710  0.99417706    -0.79600
O38         O  0.30732287  0.36985091  0.49251607    -0.98700
Zr39       Zr  0.25653357  0.25094259  0.42544498     2.21500
Zr40       Zr  0.25648069  0.25075188  0.06126028     2.11100
O41         O  0.31098871  0.25071319  0.02773983    -2.47400
O42         O  0.31103067  0.25061793  0.45877505    -0.79400
O43         O  0.25651252  0.19608991  0.02792925    -0.71600
O44         O  0.25664868  0.30544999  0.45898530    -2.32600
O45         O  0.25660250  0.19615126  0.45876452    -2.28800
O46         O  0.25654676  0.30532145  0.02789756    -0.73400
H47         H  0.18134695  0.25064519  0.04341289     0.78600
H48         H  0.25670263  0.32625873  0.44341954     0.79700
H49         H  0.33169743  0.25075325  0.04334740     0.82000
H50         H  0.25664245  0.17548601  0.44301777     0.79600
H51         H  0.22557666  0.37668116  0.50656088     0.42600
H52         H  0.29453449  0.37651901  0.01474222     0.41600
H53         H  0.38251119  0.28021495  0.48492880     0.41200
H54         H  0.38254446  0.21009243  0.01534801     0.39200
H55         H  0.28734107  0.12530448  0.00856284     0.42300
H56         H  0.22019971  0.12500459  0.47203989     0.37100
H57         H  0.13088059  0.21982816  0.48149941     0.43200
H58         H  0.13122689  0.28741021  0.01514901     0.39600
H59         H  0.38266389  0.17238937  0.49755205     0.44500
H60         H  0.18115844  0.12364898  0.98577262     0.43300
H61         H  0.12967035  0.32646803  0.99928754     0.43400
H62         H  0.33246012  0.37772999  0.49637445     0.43800
O63         O  0.18806649  0.44066373  0.17129743    -0.75100
O64         O  0.21870754  0.39927716  0.20484719    -0.54000
C65         C  0.19599521  0.40819580  0.18050445     0.78600
O66         O  0.32966843  0.06236590  0.17282595    -0.59700
O67         O  0.29724990  0.10383555  0.20462295    -0.52700
C68         C  0.32090947  0.09486128  0.18118512     0.70600
O69         O  0.32846037  0.44034984  0.17193121    -0.74300
O70         O  0.29639347  0.39901799  0.20428033    -0.54800
C71         C  0.31973979  0.40786260  0.18046993     0.76600
O72         O  0.18619121  0.06227344  0.17300394    -0.59400
O73         O  0.21877940  0.10378694  0.20453231    -0.52500
C74         C  0.19490107  0.09477155  0.18134497     0.73200
Zr75       Zr  0.20460358  0.00150886  0.19022787     2.54700
O76         O  0.20574014  0.00228189  0.12498466    -0.80000
O77         O  0.13916931  0.00120631  0.19234509    -0.93400
Zr78       Zr  0.31169643  0.00143206  0.19032339     2.64700
O79         O  0.31046407  0.00113221  0.12504551    -0.98300
O80         O  0.37714658  0.00184167  0.19104708    -0.80400
O81         O  0.25797902  0.46686111  0.18956378    -0.83800
O82         O  0.25815310  0.03619046  0.18939330    -2.18500
O83         O  0.18563548  0.06259468  0.31398817    -0.67200
O84         O  0.21853496  0.10396140  0.28252449    -0.51700
C85         C  0.19449971  0.09508274  0.30564436     0.71600
O86         O  0.32835402  0.44080770  0.31618832    -0.60100
O87         O  0.29679891  0.39949752  0.28339034    -0.52000
C88         C  0.31990551  0.40833102  0.30740032     0.73400
O89         O  0.32920196  0.06264592  0.31506442    -0.71500
O90         O  0.29745317  0.10396829  0.28246017    -0.50100
C91         C  0.32080592  0.09512149  0.30622381     0.74800
O92         O  0.18691590  0.44059394  0.31534742    -0.66800
O93         O  0.21869083  0.39919599  0.28283934    -0.54000
C94         C  0.19530347  0.40808306  0.30659128     0.73200
Zr95       Zr  0.20411772  0.00159180  0.29704387     2.77500
O96         O  0.20514020  0.00134641  0.36232195    -0.97500
O97         O  0.13868635  0.00091867  0.29461960    -0.78400
Zr98       Zr  0.31156209  0.00167248  0.29715685     2.70100
O99         O  0.31239567  0.00163450  0.36240298    -0.79600
O100        O  0.37690595  0.00067899  0.29317509    -0.98700
Zr101      Zr  0.25791933  0.43322284  0.24382831     2.21500
Zr102      Zr  0.25802925  0.06998302  0.24368869     2.11100
O103        O  0.25781527  0.03618775  0.29798133    -2.47400
O104        O  0.25806220  0.46694300  0.29801978    -0.79400
O105        O  0.20363180  0.03635808  0.24359627    -0.71600
O106        O  0.31254305  0.46677103  0.24355976    -2.32600
O107        O  0.20345839  0.46694066  0.24369157    -2.28800
O108        O  0.31250152  0.03638485  0.24369814    -0.73400
H109        H  0.25813083  0.05184813  0.16870288     0.78600
H110        H  0.33319890  0.45098647  0.24360140     0.79700
H111        H  0.25775893  0.05188239  0.31864021     0.82000
H112        H  0.18274247  0.45123945  0.24370362     0.79600
H113        H  0.38384554  0.48337843  0.20847226     0.42600
H114        H  0.38296305  0.02064258  0.27661918     0.41600
H115        H  0.28821676  0.49509306  0.36922113     0.41200
H116        H  0.21833912  0.02351272  0.36902555     0.39200
H117        H  0.13257508  0.01748124  0.27471729     0.42300
H118        H  0.13243781  0.48062017  0.20698762     0.37100
H119        H  0.22755513  0.48785183  0.11870641     0.43200
H120        H  0.29615135  0.02260395  0.11838157     0.39600
H121        H  0.17993505  0.00615911  0.36942860     0.44500
H122        H  0.13171919  0.99609809  0.16737534     0.43300
H123        H  0.33537040  0.00723619  0.11786649     0.43400
H124        H  0.38520323  0.00909040  0.31696656     0.43800
O125        O  0.44672918  0.32257063  0.17011693    -0.75100
O126        O  0.40551366  0.29125382  0.20327039    -0.54000
C127        C  0.41431691  0.31420055  0.17905093     0.78600
O128        O  0.06801604  0.17993893  0.17218222    -0.59700
O129        O  0.10916256  0.21231744  0.20430178    -0.52700
C130        C  0.10037863  0.18853455  0.18088779     0.70600
O131        O  0.44642216  0.18101514  0.17128534    -0.74300
O132        O  0.40523773  0.21355204  0.20327344    -0.54800
C133        C  0.41403651  0.18983969  0.17979965     0.76600
O134        O  0.06831676  0.32388847  0.17177919    -0.59400
O135        O  0.10931125  0.29163527  0.20425291    -0.52500
C136        C  0.10066242  0.31522188  0.18058122     0.73200
Zr137      Zr  0.00741764  0.30619701  0.18945079     2.54700
O138        O  0.00877432  0.30530076  0.12424316    -0.80000
O139        O  0.00761224  0.37179512  0.19200136    -0.93400
Zr140      Zr  0.00727765  0.19859451  0.18910836     2.64700
O141        O  0.00789419  0.20116617  0.12383994    -0.98300
O142        O  0.00637687  0.13299592  0.18914055    -0.80400
O143        O  0.47280124  0.25243490  0.18839019    -0.83800
O144        O  0.04182808  0.25234171  0.18855462    -2.18500
O145        O  0.06787705  0.32391656  0.31381344    -0.67200
O146        O  0.10908726  0.29088844  0.28230472    -0.51700
C147        C  0.10026919  0.31480139  0.30558352     0.71600
O148        O  0.44620964  0.18185267  0.31492182    -0.60100
O149        O  0.40510497  0.21343313  0.28194938    -0.52000
C150        C  0.41384643  0.19032661  0.30604002     0.73400
O151        O  0.06773817  0.18068281  0.31418037    -0.71500
O152        O  0.10906067  0.21237705  0.28151809    -0.50100
C153        C  0.10015698  0.18903305  0.30532782     0.74800
O154        O  0.44601480  0.32276128  0.31453893    -0.66800
O155        O  0.40488909  0.29040259  0.28234926    -0.54000
C156        C  0.41363827  0.31385041  0.30609182     0.73200
Zr157      Zr  0.00697542  0.30599929  0.29639186     2.77500
O158        O  0.00620204  0.30432902  0.36168958    -0.97500
O159        O  0.00654299  0.37158620  0.29462952    -0.78400
Zr160      Zr  0.00700704  0.19843927  0.29618710     2.70100
O161        O  0.00751525  0.19981163  0.36143092    -0.79600
O162        O  0.00541938  0.13289247  0.29361465    -0.98700
Zr163      Zr  0.43920296  0.25228123  0.24264522     2.21500
Zr164      Zr  0.07524651  0.25204814  0.24290871     2.11100
O165        O  0.04146189  0.25218463  0.29712875    -2.47400
O166        O  0.47253409  0.25218608  0.29693524    -0.78200
O167        O  0.04188351  0.30671725  0.24302775    -0.71600
O168        O  0.47269779  0.19764077  0.24262614    -2.32600
O169        O  0.47264795  0.30700819  0.24285189    -2.28800
O170        O  0.04175410  0.19747508  0.24272404    -0.73400
H171        H  0.05762088  0.25238042  0.16798440     0.78600
H172        H  0.45700588  0.17689519  0.24264010     0.79700
H173        H  0.05707707  0.25210167  0.31780747     0.82000
H174        H  0.45689063  0.32770405  0.24286181     0.79600
H175        H  0.52118132  0.12613730  0.21028678     0.42600
H176        H  0.02748833  0.12609017  0.28037931     0.41600
H177        H  0.49439029  0.22219156  0.36768476     0.41200
H178        H  0.02691428  0.28897080  0.36835531     0.39200
H179        H  0.01746492  0.37770356  0.27118548     0.42300
H180        H  0.48537309  0.37821762  0.20493251     0.37100
H181        H  0.49449725  0.28399298  0.11759356     0.43200
H182        H  0.02885825  0.21643918  0.11774914     0.39600
H183        H  0.01333548  0.32892935  0.36910375     0.44500
H184        H  0.00310487  0.37949087  0.16698575     0.43300
H185        H  0.01501472  0.17661040  0.11624727     0.43400
H186        H  0.00998414  0.12508038  0.31858420     0.43800
C187        C  0.38452441  0.17114894  0.16177748     0.03300
C188        C  0.36869324  0.18619096  0.13114257    -0.12800
C189        C  0.33813390  0.17019187  0.11595797     0.00800
C190        C  0.32329910  0.13926187  0.13164001    -0.11400
C191        C  0.33898126  0.12430892  0.16238886     0.03300
C192        C  0.36961189  0.14023070  0.17738678    -0.10800
H193        H  0.37938912  0.21091406  0.11987624     0.08900
H194        H  0.29883972  0.12769415  0.12078233     0.06400
H195        H  0.38099263  0.12940270  0.20189283     0.06300
C196        C  0.38467702  0.33255430  0.16080331     0.03300
C197        C  0.36908547  0.36308933  0.17655226    -0.12800
C198        C  0.33793166  0.37830176  0.16183108     0.00800
C199        C  0.32222511  0.36279422  0.13137749    -0.11400
C200        C  0.33767881  0.33221449  0.11558385     0.03300
C201        C  0.36894908  0.31714433  0.13028849    -0.10800
H202        H  0.38041664  0.37419498  0.20095601     0.08900
H203        H  0.29740197  0.37375699  0.12072643     0.06400
H204        H  0.38014874  0.29270111  0.11890600     0.06300
C205        C  0.33862915  0.17083396  0.37087937     0.03300
C206        C  0.32377619  0.13969261  0.35564857    -0.12800
C207        C  0.33903393  0.12471774  0.32468801     0.00800
C208        C  0.36932232  0.14081203  0.30910713    -0.11400
C209        C  0.38434204  0.17185098  0.32436795     0.03300
C210        C  0.36887575  0.18694911  0.35517358    -0.10800
H211        H  0.29953926  0.12804888  0.36695900     0.08900
H212        H  0.38042981  0.12993102  0.28448600     0.06400
H213        H  0.37960933  0.21176186  0.36618867     0.06300
C214        C  0.17736342  0.37878321  0.16221750     0.03300
C215        C  0.14642692  0.36373860  0.17761505    -0.12800
C216        C  0.13033568  0.33336696  0.16212945     0.00800
C217        C  0.14530027  0.31800875  0.13119034    -0.11400
C218        C  0.17631646  0.33294290  0.11581044     0.03300
C219        C  0.19231258  0.36334552  0.13134574    -0.10800
H220        H  0.13562509  0.37489516  0.20224990     0.08900
H221        H  0.13370105  0.29368619  0.11996611     0.06400
H222        H  0.21701690  0.37414711  0.12021878     0.06300
C223        C  0.17532997  0.33233443  0.37092957     0.03300
C224        C  0.19127092  0.36296589  0.35564775    -0.12800
C225        C  0.17653666  0.37854505  0.32472216     0.00800
C226        C  0.14585727  0.36337274  0.30900988    -0.11400
C227        C  0.12979409  0.33284382  0.32424575     0.03300
C228        C  0.14456055  0.31733034  0.35519244    -0.10800
H229        H  0.21581637  0.37383425  0.36700522     0.08900
H230        H  0.13523258  0.37456120  0.28432742     0.06400
H231        H  0.13297280  0.29288016  0.36617148     0.06300
C232        C  0.17510579  0.17045790  0.37047879     0.03300
C233        C  0.14451034  0.18588580  0.35483224    -0.12800
C234        C  0.12957629  0.17068341  0.32382294     0.00800
C235        C  0.14530108  0.14006807  0.30841534    -0.11400
C236        C  0.17591210  0.12460488  0.32393915     0.03300
C237        C  0.19080689  0.13984508  0.35495167    -0.10800
H238        H  0.13318338  0.21039625  0.36594642     0.08900
H239        H  0.13450014  0.12907192  0.28372691     0.06400
H240        H  0.21528333  0.12870817  0.36620768     0.06300
C241        C  0.33822886  0.33174117  0.37104721     0.03300
C242        C  0.36870391  0.31624131  0.35521234    -0.12800
C243        C  0.38410756  0.33198704  0.32470863     0.00800
C244        C  0.36887784  0.36317085  0.30994751    -0.11400
C245        C  0.33832443  0.37868266  0.32564328     0.03300
C246        C  0.32304826  0.36295751  0.35623451    -0.10800
H247        H  0.37966694  0.29137183  0.36587250     0.08900
H248        H  0.37996121  0.37455053  0.28553638     0.06400
H249        H  0.29864169  0.37414098  0.36763255     0.06300
C250        C  0.17630894  0.12409219  0.16289252     0.03300
C251        C  0.14565877  0.13962630  0.17831982    -0.12800
C252        C  0.12986574  0.17002182  0.16259930     0.00800
C253        C  0.14481332  0.18491637  0.13141913    -0.11400
C254        C  0.17549763  0.16942008  0.11593306     0.03300
C255        C  0.19117158  0.13896400  0.13168728    -0.10800
H256        H  0.13488163  0.12886001  0.20313912     0.08900
H257        H  0.13346385  0.20930125  0.12007435     0.06400
H258        H  0.21567173  0.12774397  0.12052521     0.06300
O259        O  0.18442896  0.18030119  0.93239361    -0.75100
O260        O  0.21731897  0.21214204  0.89140497    -0.54000
C261        C  0.19333817  0.18884798  0.90009483     0.78600
O262        O  0.18587702  0.32307425  0.55404587    -0.59700
O263        O  0.21779867  0.29035163  0.59505303    -0.52700
C264        C  0.19449209  0.31431162  0.58632730     0.70600
O265        O  0.18456439  0.32226912  0.93289794    -0.74300
O266        O  0.21694859  0.29008601  0.89179417    -0.54800
C267        C  0.19326693  0.31368555  0.90057397     0.76600
O268        O  0.18543082  0.17888035  0.55401341    -0.59400
O269        O  0.21725788  0.21161038  0.59509618    -0.52500
C270        C  0.19385925  0.18775691  0.58633032     0.73200
Zr271      Zr  0.20296553  0.19689685  0.49325388     2.54700
O272        O  0.13753859  0.19712381  0.49375676    -0.80000
O273        O  0.20530888  0.13131506  0.49314179    -0.93400
Zr274      Zr  0.20295068  0.30453518  0.49337659     2.64700
O275        O  0.13745964  0.30161492  0.99354684    -0.98300
O276        O  0.20416298  0.37011905  0.49222577    -0.80400
O277        O  0.20204678  0.25078566  0.95889209    -0.83800
O278        O  0.20210341  0.25068998  0.52770269    -2.18500
O279        O  0.32800922  0.17929986  0.55413543    -0.67200
O280        O  0.29562117  0.21154117  0.59519092    -0.51700
C281        C  0.31938759  0.18803655  0.58643930     0.71600
O282        O  0.32907137  0.32131634  0.93278284    -0.60100
O283        O  0.29559462  0.29032133  0.89169241    -0.52000
C284        C  0.31988739  0.31324917  0.90048999     0.73400
O285        O  0.32816629  0.32199736  0.55394525    -0.71500
O286        O  0.29519942  0.29044218  0.59507837    -0.50100
C287        C  0.31914765  0.31375888  0.58625994     0.74800
O288        O  0.32833751  0.17998444  0.93255259    -0.66800
O289        O  0.29618493  0.21252610  0.89155968    -0.54000
C290        C  0.31990052  0.18898049  0.90027828     0.73200
Zr291      Zr  0.31016884  0.19696696  0.99335345     2.77500
O292        O  0.37564222  0.19772502  0.99285911    -0.97500
O293        O  0.30868587  0.13139530  0.99387663    -0.78400
Zr294      Zr  0.31020463  0.30445265  0.99333521     2.70100
O295        O  0.37574651  0.30432902  0.49407391    -0.79600
O296        O  0.30753444  0.36998174  0.99249538    -0.98700
Zr297      Zr  0.25647009  0.25100327  0.92546689     2.21500
Zr298      Zr  0.25652733  0.25069166  0.56125155     2.11100
O299        O  0.31104062  0.25061330  0.52774729    -2.47400
O300        O  0.31097769  0.25073859  0.95877514    -0.79400
O301        O  0.25650163  0.19600883  0.52794162    -0.71600
O302        O  0.25654382  0.30550841  0.95901051    -2.32600
O303        O  0.25658524  0.19620799  0.95878546    -2.28800
O304        O  0.25664302  0.30523789  0.52786704    -0.73400
H305        H  0.18140136  0.25067251  0.54335879     0.78600
H306        H  0.25657818  0.32631925  0.94344758     0.79700
H307        H  0.33174424  0.25064219  0.54336165     0.82000
H308        H  0.25664047  0.17554639  0.94303438     0.79600
H309        H  0.22491172  0.37679663  0.00677026     0.42600
H310        H  0.29473405  0.37633810  0.51501090     0.41600
H311        H  0.38231703  0.27977717  0.98577324     0.41200
H312        H  0.38246871  0.21075273  0.51508959     0.39200
H313        H  0.28749200  0.12516627  0.50867726     0.42300
H314        H  0.22117548  0.12506593  0.97272247     0.37100
H315        H  0.13076591  0.21913165  0.98077405     0.43200
H316        H  0.13127800  0.28846070  0.51577377     0.39600
H317        H  0.38264012  0.17226787  0.99668509     0.44500
H318        H  0.18066922  0.12373386  0.48650988     0.43300
H319        H  0.12982954  0.32690226  0.49847239     0.43400
H320        H  0.33262571  0.37775103  0.99684400     0.43800
O321        O  0.18819935  0.44067344  0.67125242    -0.75100
O322        O  0.21859498  0.39926551  0.70499403    -0.54000
C323        C  0.19601250  0.40820081  0.68053755     0.78600
O324        O  0.32971158  0.06239433  0.67287665    -0.59700
O325        O  0.29725477  0.10384646  0.70465601    -0.52700
C326        C  0.32093834  0.09488011  0.68124230     0.70600
O327        O  0.32850335  0.44036601  0.67203525    -0.74300
O328        O  0.29633149  0.39903236  0.70428615    -0.54800
C329        C  0.31972969  0.40787465  0.68051410     0.76600
O330        O  0.18615669  0.06234152  0.67295535    -0.59400
O331        O  0.21869421  0.10381814  0.70457898    -0.52500
C332        C  0.19484713  0.09483225  0.68134730     0.73200
Zr333      Zr  0.20453194  0.00156350  0.69019122     2.54700
O334        O  0.20556658  0.00252498  0.62494906    -0.80000
O335        O  0.13909982  0.00100747  0.69233628    -0.93400
Zr336      Zr  0.31161720  0.00145836  0.69017050     2.64700
O337        O  0.30984452  0.00130650  0.62489703    -0.98300
O338        O  0.37707120  0.00156651  0.69015024    -0.80400
O339        O  0.25794888  0.46677793  0.68966673    -0.83800
O340        O  0.25808692  0.03622751  0.68932139    -2.18500
O341        O  0.18577724  0.06263714  0.81401443    -0.67200
O342        O  0.21854840  0.10400558  0.78242666    -0.51700
C343        C  0.19457944  0.09513030  0.80560896     0.71600
O344        O  0.32838430  0.44078974  0.81622841    -0.60100
O345        O  0.29684466  0.39946658  0.78342834    -0.52000
C346        C  0.31997184  0.40831082  0.80741806     0.73400
O347        O  0.32926304  0.06264378  0.81489293    -0.71500
O348        O  0.29727782  0.10396232  0.78252152    -0.50100
C349        C  0.32072839  0.09511685  0.80618363     0.74800
O350        O  0.18681084  0.44064552  0.81548316    -0.66800
O351        O  0.21853639  0.39922568  0.78294289    -0.54000
C352        C  0.19516414  0.40813043  0.80670651     0.73200
Zr353      Zr  0.20416450  0.00159215  0.79703752     2.77500
O354        O  0.20520689  0.00122521  0.86230873    -0.97500
O355        O  0.13873245  0.00099841  0.79472105    -0.78400
Zr356      Zr  0.31164446  0.00166350  0.79700246     2.70100
O357        O  0.31311566  0.00176110  0.86223643    -0.79600
O358        O  0.37696730  0.00057019  0.79267832    -0.98700
Zr359      Zr  0.25785502  0.43318187  0.74394730     2.21500
Zr360      Zr  0.25800360  0.06996369  0.74364567     2.11100
O361        O  0.25787825  0.03615913  0.79793696    -2.47400
O362        O  0.25795900  0.46691684  0.79813971    -0.79400
O363        O  0.20359182  0.03636873  0.74359143    -0.71600
O364        O  0.31243705  0.46678343  0.74367620    -2.32600
O365        O  0.20341615  0.46696540  0.74382116    -2.28800
O366        O  0.31251334  0.03640037  0.74355570    -0.73400
H367        H  0.25805756  0.05190447  0.66864498     0.78600
H368        H  0.33310347  0.45101320  0.74371160     0.79700
H369        H  0.25784417  0.05184690  0.81860097     0.82000
H370        H  0.18268179  0.45128801  0.74380997     0.79600
H371        H  0.38382225  0.48419169  0.70898814     0.42600
H372        H  0.38287426  0.01962636  0.77504565     0.41600
H373        H  0.28755298  0.49564965  0.86924941     0.41200
H374        H  0.21915732  0.02292053  0.86902210     0.39200
H375        H  0.13261285  0.01749492  0.77476704     0.42300
H376        H  0.13237908  0.48013764  0.70598583     0.37100
H377        H  0.22683182  0.48620953  0.61888685     0.43200
H378        H  0.29744218  0.02396489  0.61830769     0.39600
H379        H  0.18018418  0.00688727  0.86943643     0.44500
H380        H  0.13166447  0.99531465  0.66748756     0.43300
H381        H  0.33514247  0.00516050  0.61753400     0.43400
H382        H  0.38540320  0.01026764  0.81593072     0.43800
O383        O  0.44678975  0.32259534  0.67008756    -0.75100
O384        O  0.40557389  0.29135673  0.70331841    -0.54000
C385        C  0.41437931  0.31427269  0.67906658     0.78600
O386        O  0.06798744  0.18004004  0.67206837    -0.59700
O387        O  0.10910913  0.21232904  0.70430682    -0.52700
C388        C  0.10034192  0.18861566  0.68081703     0.70600
O389        O  0.44649264  0.18090081  0.67126723    -0.74300
O390        O  0.40529915  0.21356190  0.70311780    -0.54800
C391        C  0.41410948  0.18978572  0.67970865     0.76600
O392        O  0.06840913  0.32384612  0.67190312    -0.59400
O393        O  0.10937659  0.29152102  0.70434278    -0.52500
C394        C  0.10075593  0.31513534  0.68068898     0.73200
Zr395      Zr  0.00743702  0.30616255  0.68946435     2.54700
O396        O  0.00870452  0.30522377  0.62424645    -0.80000
O397        O  0.00753518  0.37175215  0.69215762    -0.93400
Zr398      Zr  0.00726117  0.19855780  0.68915503     2.64700
O399        O  0.00778688  0.20093856  0.62388056    -0.98300
O400        O  0.00639848  0.13295568  0.68933668    -0.80400
O401        O  0.47283811  0.25242830  0.68840921    -0.83800
O402        O  0.04181974  0.25229962  0.68861078    -2.18500
O403        O  0.06784287  0.32391103  0.81384551    -0.67200
O404        O  0.10905526  0.29076738  0.78246315    -0.51700
C405        C  0.10023355  0.31473573  0.80568364     0.71600
O406        O  0.44616157  0.18168076  0.81474955    -0.60100
O407        O  0.40506433  0.21340718  0.78190658    -0.52000
C408        C  0.41379931  0.19023309  0.80593431     0.73400
O409        O  0.06773853  0.18066335  0.81425172    -0.71500
O410        O  0.10904583  0.21237551  0.78159643    -0.50100
C411        C  0.10015430  0.18902372  0.80539928     0.74800
O412        O  0.44602653  0.32261459  0.81461863    -0.66800
O413        O  0.40488978  0.29033371  0.78236492    -0.54000
C414        C  0.41364470  0.31373975  0.80614834     0.73200
Zr415      Zr  0.00695110  0.30600418  0.79640818     2.77500
O416        O  0.00610554  0.30442361  0.86170470    -0.97500
O417        O  0.00663594  0.37159359  0.79454770    -0.78400
Zr418      Zr  0.00700793  0.19840249  0.79622514     2.70100
O419        O  0.00746346  0.19962613  0.86147234    -0.79600
O420        O  0.00546042  0.13285387  0.79364205    -0.98700
Zr421      Zr  0.43919920  0.25223448  0.74262326     2.21500
Zr422      Zr  0.07521557  0.25201113  0.74298159     2.11100
O423        O  0.04141938  0.25217455  0.79719686    -2.47400
O424        O  0.47254709  0.25208597  0.79691075    -0.78200
O425        O  0.04187643  0.30669337  0.74305472    -0.71600
O426        O  0.47269095  0.19758362  0.74256840    -2.32600
O427        O  0.47264907  0.30694117  0.74285563    -2.28800
O428        O  0.04175726  0.19741451  0.74276884    -0.73400
H429        H  0.05761801  0.25233861  0.66804519     0.78600
H430        H  0.45699693  0.17683975  0.74255776     0.79700
H431        H  0.05702053  0.25209656  0.81788636     0.82000
H432        H  0.45689443  0.32763891  0.74288585     0.79600
H433        H  0.52101507  0.12603232  0.71006353     0.42600
H434        H  0.02774171  0.12603891  0.78077205     0.41600
H435        H  0.49511851  0.22227604  0.86768250     0.41200
H436        H  0.02713008  0.28952510  0.86843005     0.39200
H437        H  0.01724195  0.37765292  0.77094537     0.42300
H438        H  0.48480921  0.37814538  0.70451342     0.37100
H439        H  0.49360265  0.28430610  0.61768972     0.43200
H440        H  0.02844233  0.21660647  0.61773513     0.39600
H441        H  0.01269921  0.32918492  0.86908549     0.44500
H442        H  0.00345629  0.37949926  0.66708495     0.43300
H443        H  0.01537945  0.17650561  0.61634893     0.43400
H444        H  0.00960863  0.12504921  0.81868680     0.43800
C445        C  0.38461215  0.17107020  0.66169879     0.03300
C446        C  0.36880817  0.18605245  0.63102148    -0.12800
C447        C  0.33818716  0.17009412  0.61591994     0.00800
C448        C  0.32330687  0.13923341  0.63168251    -0.11400
C449        C  0.33899741  0.12431559  0.66243935     0.03300
C450        C  0.36965874  0.14021494  0.67738686    -0.10800
H451        H  0.37954703  0.21072385  0.61968436     0.08900
H452        H  0.29881652  0.12768598  0.62087136     0.06400
H453        H  0.38103323  0.12942146  0.70191099     0.06300
C454        C  0.38473949  0.33261657  0.66080810     0.03300
C455        C  0.36913772  0.36315743  0.67653934    -0.12800
C456        C  0.33793195  0.37830679  0.66185937     0.00800
C457        C  0.32220741  0.36273659  0.63143428    -0.11400
C458        C  0.33770187  0.33217350  0.61562505     0.03300
C459        C  0.36900605  0.31716344  0.63031677    -0.10800
H460        H  0.38049015  0.37430152  0.70091573     0.08900
H461        H  0.29735482  0.37365116  0.62080479     0.06400
H462        H  0.38022883  0.29272498  0.61894611     0.06300
C463        C  0.33849973  0.17092421  0.87075255     0.03300
C464        C  0.32362545  0.13978250  0.85553630    -0.12800
C465        C  0.33894142  0.12471429  0.82464523     0.00800
C466        C  0.36928529  0.14072405  0.80909570    -0.11400
C467        C  0.38428388  0.17180008  0.82428977     0.03300
C468        C  0.36877538  0.18698623  0.85503838    -0.10800
H469        H  0.29935557  0.12818609  0.86682418     0.08900
H470        H  0.38043171  0.12976819  0.78452414     0.06400
H471        H  0.37951475  0.21181382  0.86601287     0.06300
C472        C  0.17738219  0.37879934  0.66222873     0.03300
C473        C  0.14650389  0.36368562  0.67768018    -0.12800
C474        C  0.13046068  0.33326504  0.66224012     0.00800
C475        C  0.14545941  0.31789556  0.63131442    -0.11400
C476        C  0.17639511  0.33292478  0.61584438     0.03300
C477        C  0.19230766  0.36340654  0.63131889    -0.10800
H478        H  0.13570620  0.37483705  0.70231944     0.08900
H479        H  0.13391999  0.29352328  0.62013784     0.06400
H480        H  0.21695701  0.37428041  0.62014062     0.06300
C481        C  0.17520924  0.33242578  0.87107444     0.03300
C482        C  0.19109735  0.36309324  0.85581809    -0.12800
C483        C  0.17639526  0.37860164  0.82484561     0.00800
C484        C  0.14578306  0.36334131  0.80908659    -0.11400
C485        C  0.12974453  0.33280550  0.82433518     0.03300
C486        C  0.14449308  0.31734763  0.85531209    -0.10800
H487        H  0.21560137  0.37402052  0.86720917     0.08900
H488        H  0.13518378  0.37447748  0.78437031     0.06400
H489        H  0.13293677  0.29288448  0.86629674     0.06300
C490        C  0.17515281  0.17046890  0.87048504     0.03300
C491        C  0.14451082  0.18585372  0.85489239    -0.12800
C492        C  0.12958923  0.17067363  0.82386961     0.00800
C493        C  0.14535938  0.14010485  0.80841024    -0.11400
C494        C  0.17599907  0.12466147  0.82390328     0.03300
C495        C  0.19090721  0.13991134  0.85490357    -0.10800
H496        H  0.13314639  0.21032712  0.86605001     0.08900
H497        H  0.13455864  0.12912056  0.78371677     0.06400
H498        H  0.21541599  0.12881014  0.86612465     0.06300
C499        C  0.33824442  0.33177218  0.87110257     0.03300
C500        C  0.36869037  0.31620517  0.85526994    -0.12800
C501        C  0.38411722  0.33190730  0.82475287     0.00800
C502        C  0.36891896  0.36309831  0.80996643    -0.11400
C503        C  0.33839999  0.37867453  0.82566934     0.03300
C504        C  0.32313002  0.36301530  0.85629205    -0.10800
H505        H  0.37961266  0.29132437  0.86594509     0.08900
H506        H  0.38000243  0.37443739  0.78553699     0.06400
H507        H  0.29875272  0.37425453  0.86769904     0.06300
C508        C  0.17628147  0.12417421  0.66288951     0.03300
C509        C  0.14564603  0.13974402  0.67830764    -0.12800
C510        C  0.12984138  0.17011144  0.66254320     0.00800
C511        C  0.14477829  0.18496335  0.63133896    -0.11400
C512        C  0.17546230  0.16944441  0.61587422     0.03300
C513        C  0.19113264  0.13900094  0.63165806    -0.10800
H514        H  0.13487200  0.12901121  0.70314227     0.08900
H515        H  0.13342810  0.20933395  0.61996377     0.06400
H516        H  0.21562406  0.12775883  0.62049902     0.06300
O517        O  0.18477748  0.67982445  0.43242959    -0.75100
O518        O  0.21706680  0.71223277  0.39139966    -0.54000
C519        C  0.19338983  0.68862861  0.40013068     0.78600
O520        O  0.18608532  0.82295012  0.05416781    -0.59700
O521        O  0.21782736  0.79000004  0.09514648    -0.52700
C522        C  0.19461445  0.81406868  0.08645184     0.70600
O523        O  0.18467357  0.82226921  0.43279730    -0.74300
O524        O  0.21696233  0.79005029  0.39162660    -0.54800
C525        C  0.19335392  0.81368838  0.40046150     0.76600
O526        O  0.18490358  0.67883589  0.05372403    -0.59400
O527        O  0.21726251  0.71115493  0.09471295    -0.52500
C528        C  0.19355450  0.68755619  0.08601418     0.73200
Zr529      Zr  0.20291756  0.69694333  0.99319426     2.54700
O530        O  0.13750240  0.69821215  0.99408917    -0.80000
O531        O  0.20487613  0.63135972  0.99321252    -0.93400
Zr532      Zr  0.20286566  0.80441854  0.99336323     2.64700
O533        O  0.13733164  0.79878540  0.49369542    -0.98300
O534        O  0.20257854  0.87000514  0.99181698    -0.80400
O535        O  0.20204363  0.75068937  0.45872737    -0.83800
O536        O  0.20218570  0.75063544  0.02772562    -2.18500
O537        O  0.32850135  0.67935008  0.05366191    -0.67200
O538        O  0.29596899  0.71137009  0.09478598    -0.51700
C539        C  0.31982979  0.68797275  0.08598744     0.71600
O540        O  0.32877629  0.82183047  0.43281425    -0.60100
O541        O  0.29570538  0.79042547  0.39168723    -0.52000
C542        C  0.31979199  0.81356469  0.40052436     0.73400
O543        O  0.32800331  0.82218832  0.05385421    -0.71500
O544        O  0.29528156  0.79038132  0.09499714    -0.50100
C545        C  0.31911565  0.81382268  0.08617361     0.74800
O546        O  0.32828520  0.67991783  0.43236598    -0.66800
O547        O  0.29606290  0.71243418  0.39141404    -0.54000
C548        C  0.31976558  0.68886345  0.40011327     0.73200
Zr549      Zr  0.31034520  0.69725708  0.49307598     2.77500
O550        O  0.37579940  0.69865735  0.49201577    -0.97500
O551        O  0.30899145  0.63169966  0.49346800    -0.78400
Zr552      Zr  0.31004999  0.80467609  0.49327679     2.70100
O553        O  0.37565510  0.80425242  0.99412118    -0.79600
O554        O  0.30773258  0.87022430  0.49240056    -0.98700
Zr555      Zr  0.25645342  0.75106705  0.42531154     2.21500
Zr556      Zr  0.25663450  0.75057417  0.06115725     2.11100
O557        O  0.31105599  0.75063663  0.02749550    -2.47400
O558        O  0.31096206  0.75105463  0.45855763    -0.79400
O559        O  0.25656382  0.69600250  0.02773223    -0.71600
O560        O  0.25632664  0.80550667  0.45900804    -2.32600
O561        O  0.25669969  0.69631890  0.45863846    -2.28800
O562        O  0.25658697  0.80519360  0.02782116    -0.73400
H563        H  0.18153779  0.75060054  0.04344895     0.78600
H564        H  0.25630864  0.82632358  0.44345432     0.79700
H565        H  0.33179978  0.75067471  0.04305691     0.82000
H566        H  0.25676650  0.67562817  0.44292423     0.79600
H567        H  0.22605583  0.87710338  0.48702176     0.42600
H568        H  0.29143847  0.87616680  0.01326178     0.41600
H569        H  0.38192113  0.78082750  0.48165038     0.41200
H570        H  0.38275450  0.71193516  0.01282268     0.39200
H571        H  0.28536607  0.62563327  0.00692862     0.42300
H572        H  0.21845418  0.62476014  0.47138845     0.37100
H573        H  0.13119575  0.71631312  0.47537432     0.43200
H574        H  0.13161291  0.78400580  0.01343469     0.39600
H575        H  0.38309944  0.67353185  0.49720068     0.44500
H576        H  0.17980883  0.62391225  0.98822428     0.43300
H577        H  0.12942367  0.82456388  0.00202876     0.43400
H578        H  0.33231621  0.87790407  0.49912685     0.43800
O579        O  0.18818302  0.94070647  0.17109996    -0.75100
O580        O  0.21864288  0.89933794  0.20484857    -0.54000
C581        C  0.19601271  0.90824469  0.18041428     0.78600
O582        O  0.32977954  0.56246444  0.17270492    -0.59700
O583        O  0.29730259  0.60390521  0.20447120    -0.52700
C584        C  0.32101922  0.59496762  0.18106434     0.70600
O585        O  0.32849285  0.94036170  0.17193643    -0.74300
O586        O  0.29666750  0.89898026  0.20444976    -0.54800
C587        C  0.31989008  0.90786334  0.18051928     0.76600
O588        O  0.18575664  0.56232671  0.17310769    -0.59400
O589        O  0.21881401  0.60381489  0.20416112    -0.52500
C590        C  0.19469699  0.59482275  0.18120777     0.73200
Zr591      Zr  0.20439499  0.50157584  0.19020973     2.54700
O592        O  0.20601956  0.50222847  0.12497590    -0.80000
O593        O  0.13890781  0.50113894  0.19129021    -0.93400
Zr594      Zr  0.31162617  0.50150576  0.19009517     2.64700
O595        O  0.31014406  0.50113561  0.12483082    -0.98300
O596        O  0.37708626  0.50209288  0.19080282    -0.80400
O597        O  0.25812710  0.96669738  0.18960765    -0.83800
O598        O  0.25800327  0.53619748  0.18916533    -2.18500
O599        O  0.18596257  0.56258914  0.31406709    -0.67200
O600        O  0.21837179  0.60398524  0.28213441    -0.51700
C601        C  0.19458498  0.59508644  0.30549993     0.71600
O602        O  0.32841653  0.94090796  0.31614718    -0.60100
O603        O  0.29680481  0.89950582  0.28350824    -0.52000
C604        C  0.31996627  0.90842640  0.30742304     0.73400
O605        O  0.32965174  0.56258859  0.31442404    -0.71500
O606        O  0.29703203  0.60387198  0.28262549    -0.50100
C607        C  0.32078270  0.59504345  0.30599995     0.74800
O608        O  0.18666484  0.94065255  0.31523777    -0.66800
O609        O  0.21878168  0.89922222  0.28307537    -0.54000
C610        C  0.19524030  0.90814326  0.30666824     0.73200
Zr611      Zr  0.20436238  0.50155378  0.29713397     2.77500
O612        O  0.20620126  0.50160000  0.36239235    -0.97500
O613        O  0.13892740  0.50021420  0.29575778    -0.78400
Zr614      Zr  0.31178580  0.50161858  0.29687984     2.70100
O615        O  0.31261880  0.50301428  0.36210148    -0.79600
O616        O  0.37715467  0.50026294  0.29320682    -0.98700
Zr617      Zr  0.25795778  0.93313918  0.24390791     2.21500
Zr618      Zr  0.25796124  0.56997707  0.24344329     2.11100
O619        O  0.25804178  0.53612720  0.29770418    -2.47400
O620        O  0.25784004  0.96701153  0.29801953    -0.79400
O621        O  0.20351864  0.53635427  0.24365544    -0.71600
O622        O  0.31249048  0.96680247  0.24383846    -2.32600
O623        O  0.20351484  0.96685039  0.24366758    -2.28800
O624        O  0.31249317  0.53643419  0.24345114    -0.73400
H625        H  0.25795413  0.55185447  0.16847363     0.78600
H626        H  0.33317787  0.95106123  0.24391429     0.79700
H627        H  0.25804962  0.55184291  0.31834452     0.82000
H628        H  0.18280665  0.95114082  0.24361226     0.79600
H629        H  0.38388485  0.98182855  0.20725591     0.42600
H630        H  0.38343160  0.52053082  0.27710419     0.41600
H631        H  0.28794445  0.99369840  0.36934748     0.41200
H632        H  0.21999537  0.52348188  0.36882213     0.39200
H633        H  0.13246682  0.51347727  0.27364587     0.42300
H634        H  0.13281575  0.97911047  0.20581272     0.37100
H635        H  0.23038244  0.99442961  0.11865812     0.43200
H636        H  0.29649391  0.52304086  0.11817524     0.39600
H637        H  0.18120827  0.50704377  0.36978532     0.44500
H638        H  0.13186672  0.49326263  0.16691944     0.43300
H639        H  0.33520907  0.50641458  0.11755313     0.43400
H640        H  0.38537110  0.50812765  0.31721231     0.43800
O641        O  0.44701207  0.82267194  0.16981640    -0.75100
O642        O  0.40572610  0.79164402  0.20314437    -0.54000
C643        C  0.41458777  0.81444101  0.17879203     0.78600
O644        O  0.06797527  0.68020483  0.17224933    -0.59700
O645        O  0.10915568  0.71234134  0.20457380    -0.52700
C646        C  0.10034705  0.68873173  0.18099116     0.70600
O647        O  0.44646021  0.68140962  0.17122093    -0.74300
O648        O  0.40519806  0.71380318  0.20326523    -0.54800
C649        C  0.41405838  0.69016092  0.17973503     0.76600
O650        O  0.06859728  0.82372221  0.17211925    -0.59400
O651        O  0.10952406  0.79147109  0.20467679    -0.52500
C652        C  0.10093080  0.81501986  0.18095217     0.73200
Zr653      Zr  0.00759714  0.80617549  0.18963924     2.54700
O654        O  0.00912194  0.80487029  0.12444448    -0.80000
O655        O  0.00775722  0.87173159  0.19228088    -0.93400
Zr656      Zr  0.00721469  0.69867733  0.18929762     2.64700
O657        O  0.00819921  0.70081368  0.12401629    -0.98300
O658        O  0.00549897  0.63309216  0.18975042    -0.80400
O659        O  0.47280165  0.75247274  0.18856140    -0.83800
O660        O  0.04190693  0.75230863  0.18886387    -2.18500
O661        O  0.06792032  0.82415900  0.31378279    -0.67200
O662        O  0.10912215  0.79073535  0.28269435    -0.51700
C663        C  0.10029961  0.81485317  0.30574830     0.71600
O664        O  0.44597651  0.68232310  0.31510393    -0.60100
O665        O  0.40488663  0.71329454  0.28154941    -0.52000
C666        C  0.41361980  0.69044224  0.30588194     0.73400
O667        O  0.06766227  0.68057818  0.31428177    -0.71500
O668        O  0.10906788  0.71247867  0.28194630    -0.50100
C669        C  0.10011562  0.68899347  0.30558717     0.74800
O670        O  0.44593012  0.82262757  0.31491404    -0.66800
O671        O  0.40476915  0.79070923  0.28233241    -0.54000
C672        C  0.41354955  0.81392651  0.30628506     0.73200
Zr673      Zr  0.00700181  0.80618915  0.29653582     2.77500
O674        O  0.00673911  0.80554260  0.36186110    -0.97500
O675        O  0.00637493  0.87178102  0.29435223    -0.78400
Zr676      Zr  0.00693212  0.69848539  0.29624292     2.70100
O677        O  0.00738477  0.69847104  0.36148404    -0.79600
O678        O  0.00494927  0.63299930  0.29265875    -0.98700
Zr679      Zr  0.43911109  0.75251385  0.24272494     2.21500
Zr680      Zr  0.07525370  0.75201715  0.24325488     2.11100
O681        O  0.04134614  0.75225898  0.29741881    -2.47400
O682        O  0.47246253  0.75242727  0.29707562    -0.78200
O683        O  0.04200408  0.80675700  0.24324279    -0.71600
O684        O  0.47260707  0.69786988  0.24274984    -2.32600
O685        O  0.47261088  0.80720109  0.24289707    -2.28800
O686        O  0.04178057  0.69742255  0.24287703    -0.73400
H687        H  0.05772052  0.75232883  0.16831014     0.78600
H688        H  0.45689983  0.67713711  0.24273381     0.79700
H689        H  0.05689999  0.75215095  0.31814465     0.82000
H690        H  0.45688533  0.82792282  0.24284113     0.79600
H691        H  0.52382770  0.62605568  0.20807442     0.42600
H692        H  0.02665419  0.62631931  0.27877998     0.41600
H693        H  0.49542629  0.72113119  0.36836513     0.41200
H694        H  0.02842322  0.79165101  0.36864126     0.39200
H695        H  0.01544214  0.87775110  0.27010252     0.42300
H696        H  0.48427802  0.87819446  0.20314467     0.37100
H697        H  0.49284590  0.78466524  0.11779657     0.43200
H698        H  0.02948752  0.71563050  0.11792188     0.39600
H699        H  0.01233447  0.83067387  0.36882445     0.44500
H700        H  0.00497932  0.87944895  0.16702329     0.43300
H701        H  0.01486098  0.67607001  0.11661282     0.43400
H702        H  0.01008907  0.62476075  0.31737927     0.43800
C703        C  0.38462435  0.67137771  0.16167459     0.03300
C704        C  0.36907210  0.68613679  0.13076602    -0.12800
C705        C  0.33861931  0.67002476  0.11548968     0.00800
C706        C  0.32368567  0.63918691  0.13129332    -0.11400
C707        C  0.33913441  0.62445092  0.16227500     0.03300
C708        C  0.36960651  0.64056189  0.17740906    -0.10800
H709        H  0.37984034  0.71078358  0.11940092     0.08900
H710        H  0.29930096  0.62754380  0.12035172     0.06400
H711        H  0.38082166  0.62992211  0.20207126     0.06300
C712        C  0.38499152  0.83280906  0.16048242     0.03300
C713        C  0.36942729  0.86334940  0.17623734    -0.12800
C714        C  0.33807001  0.87835992  0.16175897     0.00800
C715        C  0.32221016  0.86273142  0.13143367    -0.11400
C716        C  0.33771990  0.83222907  0.11552534     0.03300
C717        C  0.36914667  0.81730614  0.13006518    -0.10800
H718        H  0.38088473  0.87454810  0.20054058     0.08900
H719        H  0.29726066  0.87356592  0.12094956     0.06400
H720        H  0.38036349  0.79288224  0.11865974     0.06300
C721        C  0.33836804  0.67082603  0.37060548     0.03300
C722        C  0.32358210  0.63964771  0.35538922    -0.12800
C723        C  0.33893875  0.62465304  0.32448309     0.00800
C724        C  0.36922068  0.64078316  0.30892644    -0.11400
C725        C  0.38413371  0.67188843  0.32415869     0.03300
C726        C  0.36861157  0.68696531  0.35493511    -0.10800
H727        H  0.29934891  0.62797479  0.36667907     0.08900
H728        H  0.38038670  0.62989328  0.28433555     0.06400
H729        H  0.37929515  0.71179951  0.36595060     0.06300
C730        C  0.17737528  0.87880092  0.16217064     0.03300
C731        C  0.14656362  0.86365287  0.17772001    -0.12800
C732        C  0.13063968  0.83308389  0.16245532     0.00800
C733        C  0.14569453  0.81758721  0.13161351    -0.11400
C734        C  0.17652772  0.83268745  0.11599862     0.03300
C735        C  0.19231085  0.86333040  0.13129795    -0.10800
H736        H  0.13573952  0.87488762  0.20231130     0.08900
H737        H  0.13423767  0.79311306  0.12057411     0.06400
H738        H  0.21689361  0.87426094  0.12003181     0.06300
C739        C  0.17532690  0.83245389  0.37100619     0.03300
C740        C  0.19124959  0.86308905  0.35574261    -0.12800
C741        C  0.17649327  0.87864062  0.32482540     0.00800
C742        C  0.14581141  0.86346444  0.30913666    -0.11400
C743        C  0.12979783  0.83291935  0.32437278     0.03300
C744        C  0.14459340  0.81740393  0.35528219    -0.10800
H745        H  0.21579391  0.87396851  0.36709477     0.08900
H746        H  0.13516539  0.87464377  0.28445984     0.06400
H747        H  0.13304694  0.79292830  0.36625296     0.06300
C748        C  0.17514986  0.67023250  0.37057536     0.03300
C749        C  0.14446526  0.68562286  0.35507421    -0.12800
C750        C  0.12953166  0.67054346  0.32401328     0.00800
C751        C  0.14537364  0.64008415  0.30840020    -0.11400
C752        C  0.17600938  0.62458279  0.32385502     0.03300
C753        C  0.19088108  0.63969555  0.35493853    -0.10800
H754        H  0.13309659  0.71005552  0.36631562     0.08900
H755        H  0.13461124  0.62921295  0.28364139     0.06400
H756        H  0.21538143  0.62855314  0.36613898     0.06300
C757        C  0.33818802  0.83207254  0.37118740     0.03300
C758        C  0.36866235  0.81649993  0.35542954    -0.12800
C759        C  0.38406390  0.83212400  0.32487185     0.00800
C760        C  0.36886668  0.86326297  0.31001021    -0.11400
C761        C  0.33838277  0.87887362  0.32571091     0.03300
C762        C  0.32309150  0.86328865  0.35634285    -0.10800
H763        H  0.37959426  0.79164995  0.36616435     0.08900
H764        H  0.37992690  0.87453701  0.28553863     0.06400
H765        H  0.29870223  0.87454479  0.36771062     0.06300
C766        C  0.17608980  0.62415713  0.16276252     0.03300
C767        C  0.14561762  0.63986862  0.17834506    -0.12800
C768        C  0.12979605  0.67023610  0.16261110     0.00800
C769        C  0.14457243  0.68497087  0.13125429    -0.11400
C770        C  0.17513061  0.66932181  0.11562754     0.03300
C771        C  0.19077090  0.63884531  0.13138411    -0.10800
H772        H  0.13496996  0.62922405  0.20327193     0.08900
H773        H  0.13321729  0.70934583  0.11989496     0.06400
H774        H  0.21515195  0.62748941  0.12010216     0.06300
O775        O  0.18433447  0.68014534  0.93246261    -0.75100
O776        O  0.21711194  0.71207738  0.89144716    -0.54000
C777        C  0.19318555  0.68872805  0.90017446     0.78600
O778        O  0.18573978  0.82306005  0.55405096    -0.59700
O779        O  0.21766028  0.79026377  0.59501530    -0.52700
C780        C  0.19435990  0.81425228  0.58632453     0.70600
O781        O  0.18473802  0.82210456  0.93275320    -0.74300
O782        O  0.21710173  0.78998616  0.89157300    -0.54800
C783        C  0.19344715  0.81357701  0.90041056     0.76600
O784        O  0.18507684  0.67878883  0.55375883    -0.59400
O785        O  0.21726829  0.71127016  0.59475983    -0.52500
C786        C  0.19365547  0.68757016  0.58605740     0.73200
Zr787      Zr  0.20309478  0.69687932  0.49320468     2.54700
O788        O  0.13766969  0.69805231  0.49362177    -0.80000
O789        O  0.20547136  0.63131681  0.49363774    -0.93400
Zr790      Zr  0.20257999  0.80429997  0.49338168     2.64700
O791        O  0.13751613  0.80062819  0.99351820    -0.98300
O792        O  0.20100488  0.86987802  0.49242960    -0.80400
O793        O  0.20208725  0.75077515  0.95874042    -0.83800
O794        O  0.20215933  0.75055460  0.52777248    -2.18500
O795        O  0.32835618  0.67949897  0.55373604    -0.67200
O796        O  0.29591939  0.71161312  0.59486996    -0.51700
C797        C  0.31970583  0.68813870  0.58606740     0.71600
O798        O  0.32886013  0.82160512  0.93270159    -0.60100
O799        O  0.29567622  0.79029292  0.89159444    -0.52000
C800        C  0.31979113  0.81340850  0.90040946     0.73400
O801        O  0.32788466  0.82242817  0.55388448    -0.71500
O802        O  0.29528479  0.79051527  0.59504019    -0.50100
C803        C  0.31909737  0.81397488  0.58620910     0.74800
O804        O  0.32821279  0.67967502  0.93234539    -0.66800
O805        O  0.29621692  0.71242577  0.89140509    -0.54000
C806        C  0.31984090  0.68877496  0.90009600     0.73200
Zr807      Zr  0.31015667  0.69690323  0.99305497     2.77500
O808        O  0.37561764  0.69727560  0.99182074    -0.97500
O809        O  0.30772851  0.63136762  0.99367763    -0.78400
Zr810      Zr  0.31020135  0.80446868  0.99323167     2.70100
O811        O  0.37548936  0.80344862  0.49418854    -0.79600
O812        O  0.30691575  0.86998205  0.99254187    -0.98700
Zr813      Zr  0.25650218  0.75094487  0.92530503     2.21500
Zr814      Zr  0.25657960  0.75076701  0.56119638     2.11100
O815        O  0.31102331  0.75092376  0.52759097    -2.47400
O816        O  0.31098816  0.75076174  0.95860687    -0.79400
O817        O  0.25674313  0.69621698  0.52772914    -0.71600
O818        O  0.25653861  0.80542431  0.95892581    -2.32600
O819        O  0.25652438  0.69617650  0.95860418    -2.28800
O820        O  0.25635674  0.80534500  0.52778253    -0.73400
H821        H  0.18152625  0.75043915  0.54351223     0.78600
H822        H  0.25654535  0.82624584  0.94337727     0.79700
H823        H  0.33175566  0.75100262  0.54316707     0.82000
H824        H  0.25652852  0.67549839  0.94287308     0.79600
H825        H  0.22057525  0.87725101  0.00998452     0.42600
H826        H  0.29268499  0.87671644  0.51334191     0.41600
H827        H  0.38239121  0.78078881  0.98341037     0.41200
H828        H  0.38270111  0.71234157  0.51373516     0.39200
H829        H  0.28736774  0.62555476  0.50771940     0.42300
H830        H  0.21832643  0.62487699  0.97121907     0.37100
H831        H  0.13102808  0.71894318  0.97867902     0.43200
H832        H  0.13169375  0.78412719  0.51515823     0.39600
H833        H  0.38257647  0.67233968  0.99823388     0.44500
H834        H  0.18034207  0.62368030  0.48928437     0.43300
H835        H  0.12857847  0.82324366  0.49971663     0.43400
H836        H  0.33126549  0.87800984  0.99969555     0.43800
O837        O  0.18814518  0.94075169  0.67109818    -0.75100
O838        O  0.21871479  0.89936313  0.70471800    -0.54000
C839        C  0.19602849  0.90828840  0.68035190     0.78600
O840        O  0.32966387  0.56245550  0.67268896    -0.59700
O841        O  0.29733551  0.60391157  0.70459327    -0.52700
C842        C  0.32097540  0.59497084  0.68109903     0.70600
O843        O  0.32864917  0.94039749  0.67206549    -0.74300
O844        O  0.29651442  0.89902594  0.70428117    -0.54800
C845        C  0.31991249  0.90791094  0.68053005     0.76600
O846        O  0.18587601  0.56226394  0.67301407    -0.59400
O847        O  0.21862943  0.60376014  0.70438234    -0.52500
C848        C  0.19467823  0.59476107  0.68125184     0.73200
Zr849      Zr  0.20443568  0.50156420  0.69030912     2.54700
O850        O  0.20657843  0.50237298  0.62509729    -0.80000
O851        O  0.13895133  0.50109327  0.69091455    -0.93400
Zr852      Zr  0.31153863  0.50149708  0.69018251     2.64700
O853        O  0.30945758  0.50113630  0.62493009    -0.98300
O854        O  0.37699079  0.50210881  0.69054532    -0.80400
O855        O  0.25804386  0.96672927  0.68946768    -0.83800
O856        O  0.25798057  0.53624926  0.68934387    -2.18500
O857        O  0.18591531  0.56266833  0.81414301    -0.67200
O858        O  0.21843575  0.60407077  0.78232693    -0.51700
C859        C  0.19457959  0.59516825  0.80561864     0.71600
O860        O  0.32831090  0.94085538  0.81606875    -0.60100
O861        O  0.29674562  0.89949156  0.78334405    -0.52000
C862        C  0.31986333  0.90838003  0.80731050     0.73400
O863        O  0.32980554  0.56250009  0.81446070    -0.71500
O864        O  0.29715202  0.60382781  0.78275304    -0.50100
C865        C  0.32096439  0.59496469  0.80605476     0.74800
O866        O  0.18676053  0.94062040  0.81524973    -0.66800
O867        O  0.21873570  0.89922483  0.78291115    -0.54000
C868        C  0.19528067  0.90811305  0.80660173     0.73200
Zr869      Zr  0.20429647  0.50159630  0.79727326     2.77500
O870        O  0.20605694  0.50147135  0.86254203    -0.97500
O871        O  0.13885610  0.50056256  0.79589491    -0.78400
Zr872      Zr  0.31167578  0.50158797  0.79702435     2.70100
O873        O  0.31220817  0.50286768  0.86225950    -0.79600
O874        O  0.37703578  0.50024097  0.79341827    -0.98700
Zr875      Zr  0.25792306  0.93319970  0.74379663     2.21500
Zr876      Zr  0.25794964  0.57001764  0.74361147     2.11100
O877        O  0.25797875  0.53617658  0.79789135    -2.47400
O878        O  0.25789965  0.96703014  0.79793204    -0.79400
O879        O  0.20352639  0.53634986  0.74376851    -0.71600
O880        O  0.31247796  0.96682390  0.74368005    -2.32600
O881        O  0.20348280  0.96689946  0.74363161    -2.28800
O882        O  0.31240908  0.53637599  0.74358066    -0.73400
H883        H  0.25792434  0.55192242  0.66866586     0.78600
H884        H  0.33315571  0.95107008  0.74374363     0.79700
H885        H  0.25800688  0.55188795  0.81853657     0.82000
H886        H  0.18278121  0.95118112  0.74359346     0.79600
H887        H  0.38388785  0.98263020  0.70756288     0.42600
H888        H  0.38336117  0.52085470  0.77777509     0.41600
H889        H  0.28959982  0.99152987  0.86941957     0.41200
H890        H  0.22021369  0.52310185  0.86902626     0.39200
H891        H  0.13253464  0.51133540  0.77244452     0.42300
H892        H  0.13284960  0.97918290  0.70628237     0.37100
H893        H  0.22975929  0.99342873  0.61854012     0.43200
H894        H  0.29474258  0.52238945  0.61844172     0.39600
H895        H  0.18115364  0.50733119  0.86992135     0.44500
H896        H  0.13210122  0.49389846  0.66628187     0.43300
H897        H  0.33417664  0.50758859  0.61741813     0.43400
H898        H  0.38522235  0.50755600  0.81760461     0.43800
O899        O  0.44709898  0.82287956  0.66987645    -0.75100
O900        O  0.40580638  0.79175534  0.70310942    -0.54000
C901        C  0.41467228  0.81459842  0.67880012     0.78600
O902        O  0.06800464  0.68012726  0.67230338    -0.59700
O903        O  0.10915059  0.71239809  0.70453443    -0.52700
C904        C  0.10037171  0.68872391  0.68100360     0.70600
O905        O  0.44650062  0.68142943  0.67114061    -0.74300
O906        O  0.40524527  0.71383416  0.70317767    -0.54800
C907        C  0.41409430  0.69016984  0.67966195     0.76600
O908        O  0.06862817  0.82375746  0.67216075    -0.59400
O909        O  0.10953877  0.79154496  0.70477183    -0.52500
C910        C  0.10095248  0.81508673  0.68104007     0.73200
Zr911      Zr  0.00762600  0.80615658  0.68956062     2.54700
O912        O  0.00923750  0.80475196  0.62436118    -0.80000
O913        O  0.00785135  0.87172002  0.69208033    -0.93400
Zr914      Zr  0.00724590  0.69863586  0.68936035     2.64700
O915        O  0.00816625  0.70063132  0.62407699    -0.98300
O916        O  0.00547000  0.63305346  0.69014971    -0.80400
O917        O  0.47286245  0.75259603  0.68849008    -0.83800
O918        O  0.04192778  0.75227812  0.68883764    -2.18500
O919        O  0.06796799  0.82417769  0.81370530    -0.67200
O920        O  0.10915304  0.79065082  0.78270886    -0.51700
C921        C  0.10034392  0.81480698  0.80572267     0.71600
O922        O  0.44606570  0.68217960  0.81491460    -0.60100
O923        O  0.40497275  0.71341597  0.78159834    -0.52000
C924        C  0.41371080  0.69044252  0.80581950     0.73400
O925        O  0.06761159  0.68066241  0.81431198    -0.71500
O926        O  0.10902125  0.71244602  0.78187182    -0.50100
C927        C  0.10005868  0.68901490  0.80555748     0.74800
O928        O  0.44593732  0.82274523  0.81477099    -0.66800
O929        O  0.40480135  0.79068017  0.78230027    -0.54000
C930        C  0.41356139  0.81397584  0.80618399     0.73200
Zr931      Zr  0.00700643  0.80627424  0.79649096     2.77500
O932        O  0.00674346  0.80561424  0.86181258    -0.97500
O933        O  0.00643148  0.87187329  0.79452906    -0.78400
Zr934      Zr  0.00690028  0.69858584  0.79632677     2.70100
O935        O  0.00763694  0.69847559  0.86156869    -0.79600
O936        O  0.00478079  0.63309836  0.79289959    -0.98700
Zr937      Zr  0.43916195  0.75255381  0.74265179     2.21500
Zr938      Zr  0.07522726  0.75203859  0.74324798     2.11100
O939        O  0.04133114  0.75234468  0.79742821    -2.47400
O940        O  0.47250958  0.75234149  0.79699769    -0.78200
O941        O  0.04199656  0.80679305  0.74318427    -0.71600
O942        O  0.47264608  0.69790773  0.74263870    -2.32600
O943        O  0.47267674  0.80723290  0.74293353    -2.28800
O944        O  0.04176269  0.69744799  0.74296577    -0.73400
H945        H  0.05775396  0.75228007  0.66829308     0.78600
H946        H  0.45693356  0.67717918  0.74259741     0.79700
H947        H  0.05688625  0.75224898  0.81815302     0.82000
H948        H  0.45695901  0.82796023  0.74289985     0.79600
H949        H  0.52406718  0.62616396  0.70781478     0.42600
H950        H  0.02630588  0.62636505  0.77877074     0.41600
H951        H  0.49545943  0.72106856  0.86823026     0.41200
H952        H  0.02875139  0.79224997  0.86860412     0.39200
H953        H  0.01530086  0.87791471  0.77022470     0.42300
H954        H  0.48457873  0.87834102  0.70345389     0.37100
H955        H  0.49348400  0.78447599  0.61781872     0.43200
H956        H  0.02942014  0.71547764  0.61793477     0.39600
H957        H  0.01173205  0.83087433  0.86877366     0.44500
H958        H  0.00460651  0.87939802  0.66686665     0.43300
H959        H  0.01486672  0.67588541  0.61671809     0.43400
H960        H  0.01021504  0.62490269  0.81757177     0.43800
C961        C  0.38463458  0.67137533  0.66161923     0.03300
C962        C  0.36898723  0.68620966  0.63079416    -0.12800
C963        C  0.33848365  0.67014791  0.61556489     0.00800
C964        C  0.32356334  0.63928870  0.63135886    -0.11400
C965        C  0.33908891  0.62446835  0.66227417     0.03300
C966        C  0.36964295  0.64052267  0.67732935    -0.10800
H967        H  0.37973617  0.71087439  0.61944837     0.08900
H968        H  0.29914075  0.62768772  0.62045860     0.06400
H969        H  0.38092681  0.62982798  0.70193571     0.06300
C970        C  0.38507185  0.83295083  0.66047911     0.03300
C971        C  0.36949929  0.86347726  0.67624193    -0.12800
C972        C  0.33810536  0.87843064  0.66179851     0.00800
C973        C  0.32222660  0.86280067  0.63149778    -0.11400
C974        C  0.33774887  0.83233856  0.61555663     0.03300
C975        C  0.36920393  0.81743074  0.63007087    -0.10800
H976        H  0.38096646  0.87469549  0.70053221     0.08900
H977        H  0.29725436  0.87361648  0.62104614     0.06400
H978        H  0.38042546  0.79301505  0.61865460     0.06300
C979        C  0.33848756  0.67079062  0.87057986     0.03300
C980        C  0.32379257  0.63954590  0.85542434    -0.12800
C981        C  0.33916187  0.62454954  0.82453015     0.00800
C982        C  0.36941944  0.64070414  0.80895369    -0.11400
C983        C  0.38423422  0.67189426  0.82410939     0.03300
C984        C  0.36865503  0.68701368  0.85484216    -0.10800
H985        H  0.29959065  0.62783099  0.86673775     0.08900
H986        H  0.38061592  0.62978836  0.78438775     0.06400
H987        H  0.37926323  0.71190649  0.86579883     0.06300
C988        C  0.17735326  0.87886899  0.66214622     0.03300
C989        C  0.14663237  0.86366931  0.67781390    -0.12800
C990        C  0.13064372  0.83314774  0.66253632     0.00800
C991        C  0.14554880  0.81773928  0.63158401    -0.11400
C992        C  0.17631613  0.83287326  0.61588212     0.03300
C993        C  0.19215750  0.86348261  0.63117640    -0.10800
H994        H  0.13591224  0.87484731  0.70247645     0.08900
H995        H  0.13404226  0.79329350  0.62053370     0.06400
H996        H  0.21669587  0.87443829  0.61983790     0.06300
C997        C  0.17540865  0.83236313  0.87095663     0.03300
C998        C  0.19132910  0.86300760  0.85568379    -0.12800
C999        C  0.17656381  0.87857346  0.82476740     0.00800
C1000       C  0.14588446  0.86338459  0.80908610    -0.11400
C1001       C  0.12985707  0.83285501  0.82434111     0.03300
C1002       C  0.14465486  0.81733482  0.85524948    -0.10800
H1003       H  0.21587585  0.87388535  0.86703014     0.08900
H1004       H  0.13523525  0.87455641  0.78440732     0.06400
H1005       H  0.13309670  0.79286810  0.86622792     0.06300
C1006       C  0.17498398  0.67031805  0.87062515     0.03300
C1007       C  0.14430743  0.68567299  0.85509392    -0.12800
C1008       C  0.12945204  0.67058484  0.82400658     0.00800
C1009       C  0.14533723  0.64013708  0.80841739    -0.11400
C1010       C  0.17595828  0.62466184  0.82392447     0.03300
C1011       C  0.19077392  0.63980143  0.85501471    -0.10800
H1012       H  0.13289956  0.71009580  0.86631856     0.08900
H1013       H  0.13461896  0.62925421  0.78364467     0.06400
H1014       H  0.21527107  0.62868806  0.86625104     0.06300
C1015       C  0.33812429  0.83195786  0.87104365     0.03300
C1016       C  0.36864275  0.81646211  0.85529705    -0.12800
C1017       C  0.38404808  0.83214018  0.82476741     0.00800
C1018       C  0.36881270  0.86326794  0.80991996    -0.11400
C1019       C  0.33826729  0.87879880  0.82558582     0.03300
C1020       C  0.32295756  0.86314053  0.85618046    -0.10800
H1021       H  0.37961731  0.79162847  0.86602600     0.08900
H1022       H  0.37989093  0.87459172  0.78547933     0.06400
H1023       H  0.29853215  0.87433694  0.86752833     0.06300
C1024       C  0.17609335  0.62409744  0.66277391     0.03300
C1025       C  0.14563759  0.63984142  0.67835958    -0.12800
C1026       C  0.12985104  0.67023636  0.66264211     0.00800
C1027       C  0.14467851  0.68499379  0.63131681    -0.11400
C1028       C  0.17521882  0.66931842  0.61567278     0.03300
C1029       C  0.19079333  0.63877982  0.63139199    -0.10800
H1030       H  0.13497075  0.62919352  0.70327706     0.08900
H1031       H  0.13335829  0.70939431  0.61997853     0.06400
H1032       H  0.21515334  0.62738994  0.62009950     0.06300
O1033       O  0.68439643  0.18031504  0.43232719    -0.75100
O1034       O  0.71729054  0.21219152  0.39137059    -0.54000
C1035       C  0.69330784  0.18889318  0.40004094     0.78600
O1036       O  0.68583966  0.32302612  0.05401570    -0.59700
O1037       O  0.71789592  0.29045184  0.09503114    -0.52700
C1038       C  0.69452631  0.31434505  0.08629688     0.70600
O1039       O  0.68458947  0.32216001  0.43284759    -0.74300
O1040       O  0.71711472  0.29012293  0.39174005    -0.54800
C1041       C  0.69336924  0.31365296  0.40052286     0.76600
O1042       O  0.68542545  0.17881463  0.05395633    -0.59400
O1043       O  0.71715158  0.21168094  0.09501255    -0.52500
C1044       C  0.69380287  0.18776399  0.08626383     0.73200
Zr1045     Zr  0.70296741  0.19688197  0.99323147     2.54700
O1046       O  0.63754101  0.19701676  0.99396945    -0.80000
O1047       O  0.70555537  0.13130612  0.99316080    -0.93400
Zr1048     Zr  0.70291790  0.30450659  0.99336055     2.64700
O1049       O  0.63747991  0.30153759  0.49350451    -0.98300
O1050       O  0.70356538  0.37008825  0.99215875    -0.80400
O1051       O  0.70208120  0.25077037  0.45884373    -0.83800
O1052       O  0.70210973  0.25067457  0.02768171    -2.18500
O1053       O  0.82796704  0.17928698  0.05412008    -0.67200
O1054       O  0.79571560  0.21167790  0.09516920    -0.51700
C1055       C  0.81941549  0.18810103  0.08642583     0.71600
O1056       O  0.82914056  0.32114440  0.43273322    -0.60100
O1057       O  0.79556809  0.29027269  0.39163495    -0.52000
C1058       C  0.81989652  0.31315140  0.40043777     0.73400
O1059       O  0.82800754  0.32223121  0.05385915    -0.71500
O1060       O  0.79519552  0.29051933  0.09498743    -0.50100
C1061       C  0.81905092  0.31392380  0.08616112     0.74800
O1062       O  0.82826960  0.17976846  0.43257979    -0.66800
O1063       O  0.79631614  0.21252666  0.39160131    -0.54000
C1064       C  0.81993289  0.18887923  0.40031943     0.73200
Zr1065     Zr  0.81009165  0.19679001  0.49332270     2.77500
O1066       O  0.87555831  0.19737397  0.49277360    -0.97500
O1067       O  0.80820343  0.13121932  0.49362537    -0.78400
Zr1068     Zr  0.81026681  0.30428397  0.49329365     2.70100
O1069       O  0.87576079  0.30360074  0.99420705    -0.79600
O1070       O  0.80790149  0.36981520  0.49237341    -0.98700
Zr1071     Zr  0.75650692  0.25096667  0.42544359     2.21500
Zr1072     Zr  0.75653443  0.25073197  0.06121257     2.11100
O1073       O  0.81104948  0.25060361  0.02770821    -2.47400
O1074       O  0.81099861  0.25057075  0.45875122    -0.79400
O1075       O  0.75649283  0.19604394  0.02792668    -0.71600
O1076       O  0.75658930  0.30545225  0.45900996    -2.32600
O1077       O  0.75655263  0.19615583  0.45870337    -2.28800
O1078       O  0.75663406  0.30528076  0.02781638    -0.73400
H1079       H  0.68141733  0.25065253  0.04334968     0.78600
H1080       H  0.75664535  0.32627452  0.44346193     0.79700
H1081       H  0.83175793  0.25063449  0.04331691     0.82000
H1082       H  0.75658647  0.17551029  0.44293171     0.79600
H1083       H  0.72508004  0.37674240  0.50656043     0.42600
H1084       H  0.79569341  0.37654489  0.01505696     0.41600
H1085       H  0.88228844  0.27968241  0.48469008     0.41200
H1086       H  0.88256739  0.20995139  0.01508447     0.39200
H1087       H  0.78689923  0.12531081  0.00862554     0.42300
H1088       H  0.72065157  0.12507115  0.47205394     0.37100
H1089       H  0.63084125  0.21947661  0.48093033     0.43200
H1090       H  0.63131679  0.28753809  0.01529046     0.39600
H1091       H  0.88251060  0.17214612  0.49794452     0.44500
H1092       H  0.68122568  0.12362956  0.98557452     0.43300
H1093       H  0.62971783  0.32643740  0.99905540     0.43400
H1094       H  0.83296631  0.37747473  0.49705123     0.43800
O1095       O  0.68827286  0.44072503  0.17115511    -0.75100
O1096       O  0.71854078  0.39933376  0.20503059    -0.54000
C1097       C  0.69602650  0.40825638  0.18050552     0.78600
O1098       O  0.82974006  0.06230417  0.17276112    -0.59700
O1099       O  0.79729954  0.10378452  0.20452863    -0.52700
C1100       C  0.82098517  0.09479816  0.18111380     0.70600
O1101       O  0.82846580  0.44038626  0.17196783    -0.74300
O1102       O  0.79629476  0.39906268  0.20422171    -0.54800
C1103       C  0.81968030  0.40790487  0.18044318     0.76600
O1104       O  0.68614621  0.06230326  0.17293799    -0.59400
O1105       O  0.71869094  0.10382767  0.20450191    -0.52500
C1106       C  0.69483978  0.09480922  0.18127995     0.73200
Zr1107     Zr  0.70448609  0.00153886  0.19030106     2.54700
O1108       O  0.70549588  0.00215643  0.12506203    -0.80000
O1109       O  0.63905514  0.00132532  0.19259600    -0.93400
Zr1110     Zr  0.81157959  0.00143737  0.19019872     2.64700
O1111       O  0.81002265  0.00123905  0.12492281    -0.98300
O1112       O  0.87702800  0.00158875  0.19081566    -0.80400
O1113       O  0.75798373  0.46685918  0.18966346    -0.83800
O1114       O  0.75804165  0.03621130  0.18937168    -2.18500
O1115       O  0.68557333  0.06256094  0.31397304    -0.67200
O1116       O  0.71854247  0.10394793  0.28260395    -0.51700
C1117       C  0.69446634  0.09505426  0.30568223     0.71600
O1118       O  0.82834940  0.44081765  0.31625357    -0.60100
O1119       O  0.79675598  0.39950594  0.28348948    -0.52000
C1120       C  0.81987833  0.40834333  0.30748133     0.73400
O1121       O  0.82928073  0.06260952  0.31497006    -0.71500
O1122       O  0.79746828  0.10395296  0.28244476    -0.50100
C1123       C  0.82084617  0.09509052  0.30618178     0.74800
O1124       O  0.68695108  0.44059572  0.31541876    -0.66800
O1125       O  0.71871912  0.39918211  0.28291799    -0.54000
C1126       C  0.69533069  0.40808003  0.30665963     0.73200
Zr1127     Zr  0.70423609  0.00159488  0.29710000     2.77500
O1128       O  0.70586098  0.00140350  0.36236976    -0.97500
O1129       O  0.63879508  0.00090278  0.29514038    -0.78400
Zr1130     Zr  0.81162363  0.00165507  0.29702793     2.70100
O1131       O  0.81202444  0.00156743  0.36227034    -0.79600
O1132       O  0.87699217  0.00057778  0.29340114    -0.98700
Zr1133     Zr  0.75790094  0.43323077  0.24391448     2.21500
Zr1134     Zr  0.75800680  0.07003025  0.24364600     2.11100
O1135       O  0.75790954  0.03620614  0.29791634    -2.47400
O1136       O  0.75805998  0.46696111  0.29810432    -0.79400
O1137       O  0.70361766  0.03638709  0.24366931    -0.71600
O1138       O  0.81252867  0.46677075  0.24364714    -2.32600
O1139       O  0.70345928  0.46698154  0.24378672    -2.28800
O1140       O  0.81246081  0.03638590  0.24357124    -0.73400
H1141       H  0.75800221  0.05186022  0.16867473     0.78600
H1142       H  0.83317797  0.45097749  0.24368676     0.79700
H1143       H  0.75787821  0.05188875  0.31858394     0.82000
H1144       H  0.68273159  0.45129550  0.24378849     0.79600
H1145       H  0.88381658  0.48348994  0.20873274     0.42600
H1146       H  0.88315467  0.02042216  0.27674282     0.41600
H1147       H  0.78766772  0.49687630  0.36926607     0.41200
H1148       H  0.71750628  0.02444925  0.36900301     0.39200
H1149       H  0.63253392  0.01762028  0.27541316     0.42300
H1150       H  0.63247026  0.47987489  0.20604129     0.37100
H1151       H  0.72719849  0.48706396  0.11883130     0.43200
H1152       H  0.79721720  0.02365896  0.11829453     0.39600
H1153       H  0.68043939  0.00439376  0.36969620     0.44500
H1154       H  0.63153568  0.99532691  0.16784403     0.43300
H1155       H  0.83526605  0.00556570  0.11763632     0.43400
H1156       H  0.88517034  0.00914435  0.31717933     0.43800
O1157       O  0.94662732  0.32261370  0.17011915    -0.75100
O1158       O  0.90542774  0.29117896  0.20317657    -0.54000
C1159       C  0.91421636  0.31418474  0.17900699     0.78600
O1160       O  0.56799563  0.18011308  0.17202035    -0.59700
O1161       O  0.60916730  0.21225717  0.20434283    -0.52700
C1162       C  0.60036185  0.18860696  0.18080967     0.70600
O1163       O  0.94649435  0.18094403  0.17127648    -0.74300
O1164       O  0.90528587  0.21351731  0.20319801    -0.54800
C1165       C  0.91410497  0.18978018  0.17975655     0.76600
O1166       O  0.56842320  0.32394345  0.17189890    -0.59400
O1167       O  0.60941382  0.29152169  0.20420160    -0.52500
C1168       C  0.60077325  0.31519303  0.18060948     0.73200
Zr1169     Zr  0.50750444  0.30617000  0.18947559     2.54700
O1170       O  0.50901838  0.30532317  0.12426951    -0.80000
O1171       O  0.50770898  0.37176174  0.19197840    -0.93400
Zr1172     Zr  0.50724959  0.19857698  0.18911205     2.64700
O1173       O  0.50784901  0.20083261  0.12383113    -0.98300
O1174       O  0.50635782  0.13297617  0.18932796    -0.80400
O1175       O  0.97278699  0.25243022  0.18836961    -0.83800
O1176       O  0.54185364  0.25229757  0.18856105    -2.18500
O1177       O  0.56795584  0.32381883  0.31387634    -0.67200
O1178       O  0.60916346  0.29083482  0.28232249    -0.51700
C1179       C  0.60034785  0.31472465  0.30562781     0.71600
O1180       O  0.94614928  0.18193690  0.31490709    -0.60100
O1181       O  0.90504716  0.21345050  0.28187007    -0.52000
C1182       C  0.91378665  0.19037917  0.30599165     0.73400
O1183       O  0.56776309  0.18066925  0.31417680    -0.71500
O1184       O  0.60908907  0.21236052  0.28151370    -0.50100
C1185       C  0.60017713  0.18902248  0.30532206     0.74800
O1186       O  0.94592013  0.32275559  0.31450048    -0.66800
O1187       O  0.90481894  0.29041645  0.28225781    -0.54000
C1188       C  0.91355129  0.31384153  0.30602789     0.73200
Zr1189     Zr  0.50705220  0.30596125  0.29640893     2.77500
O1190       O  0.50632335  0.30438381  0.36170478    -0.97500
O1191       O  0.50660594  0.37154275  0.29461176    -0.78400
Zr1192     Zr  0.50704286  0.19840960  0.29618984     2.70100
O1193       O  0.50760815  0.19989235  0.36143336    -0.79600
O1194       O  0.50545521  0.13286415  0.29358366    -0.98700
Zr1195     Zr  0.93916981  0.25228801  0.24259693     2.21500
Zr1196     Zr  0.57528943  0.25202150  0.24290964     2.11100
O1197       O  0.54151685  0.25214016  0.29713293    -2.47400
O1198       O  0.97248145  0.25220960  0.29690420    -0.78200
O1199       O  0.54196932  0.30670823  0.24304848    -0.71600
O1200       O  0.97269099  0.19765828  0.24260401    -2.32600
O1201       O  0.97257030  0.30703929  0.24282886    -2.28800
O1202       O  0.54176519  0.19745791  0.24271007    -0.73400
H1203       H  0.55763488  0.25234130  0.16798202     0.78600
H1204       H  0.95700702  0.17690685  0.24261466     0.79700
H1205       H  0.55713131  0.25205185  0.31781237     0.82000
H1206       H  0.95679910  0.32772488  0.24283596     0.79600
H1207       H  0.02101189  0.12610095  0.21021344     0.42600
H1208       H  0.52745544  0.12607760  0.28022730     0.41600
H1209       H  0.99406516  0.22196189  0.36771349     0.41200
H1210       H  0.52724432  0.28932122  0.36839061     0.39200
H1211       H  0.51735334  0.37764735  0.27108501     0.42300
H1212       H  0.98532769  0.37823603  0.20505152     0.37100
H1213       H  0.99488679  0.28352780  0.11764148     0.43200
H1214       H  0.52877068  0.21613555  0.11766742     0.39600
H1215       H  0.51312464  0.32909293  0.36907214     0.44500
H1216       H  0.50330802  0.37943703  0.16693767     0.43300
H1217       H  0.51503502  0.17625973  0.11635240     0.43400
H1218       H  0.51015446  0.12503434  0.31852241     0.43800
C1219       C  0.88460812  0.17108242  0.16172420     0.03300
C1220       C  0.86875261  0.18615424  0.13111587    -0.12800
C1221       C  0.83820465  0.17014806  0.11591784     0.00800
C1222       C  0.82339499  0.13919309  0.13157280    -0.11400
C1223       C  0.83907873  0.12423194  0.16231701     0.03300
C1224       C  0.86971785  0.14014133  0.17731032    -0.10800
H1225       H  0.87942860  0.21089712  0.11987392     0.08900
H1226       H  0.79894227  0.12761942  0.12070665     0.06400
H1227       H  0.88110937  0.12929843  0.20180496     0.06300
C1228       C  0.88456763  0.33255166  0.16077484     0.03300
C1229       C  0.86898729  0.36309105  0.17652790    -0.12800
C1230       C  0.83786592  0.37835230  0.16178260     0.00800
C1231       C  0.82219628  0.36290872  0.13127727    -0.11400
C1232       C  0.83762279  0.33230406  0.11550456     0.03300
C1233       C  0.86884672  0.31717639  0.13024394    -0.10800
H1234       H  0.88030388  0.37416633  0.20095134     0.08900
H1235       H  0.79740820  0.37391749  0.12059141     0.06400
H1236       H  0.88002197  0.29272029  0.11886450     0.06300
C1237       C  0.83856145  0.17085774  0.37080976     0.03300
C1238       C  0.82377434  0.13966150  0.35562021    -0.12800
C1239       C  0.83905859  0.12468439  0.32466978     0.00800
C1240       C  0.86932329  0.14081476  0.30908193    -0.11400
C1241       C  0.88428316  0.17189772  0.32431114     0.03300
C1242       C  0.86877397  0.18701438  0.35508417    -0.10800
H1243       H  0.79956036  0.12798370  0.36694440     0.08900
H1244       H  0.88045394  0.12992969  0.28447297     0.06400
H1245       H  0.87946221  0.21185905  0.36607227     0.06300
C1246       C  0.67741036  0.37884549  0.16218805     0.03300
C1247       C  0.64649937  0.36375888  0.17760029    -0.12800
C1248       C  0.63045320  0.33334633  0.16214742     0.00800
C1249       C  0.64544856  0.31798547  0.13121762    -0.11400
C1250       C  0.67642832  0.33297245  0.11579920     0.03300
C1251       C  0.69236974  0.36342272  0.13130803    -0.10800
H1252       H  0.63568531  0.37491595  0.20222951     0.08900
H1253       H  0.63388980  0.29363277  0.12001756     0.06400
H1254       H  0.71705190  0.37426075  0.12016784     0.06300
C1255       C  0.67532563  0.33239981  0.37102563     0.03300
C1256       C  0.69126105  0.36302586  0.35574295    -0.12800
C1257       C  0.67656247  0.37854491  0.32477868     0.00800
C1258       C  0.64594434  0.36329876  0.30901428    -0.11400
C1259       C  0.62986493  0.33279285  0.32428185     0.03300
C1260       C  0.64457733  0.31735959  0.35528823    -0.10800
H1261       H  0.71578380  0.37392549  0.36712146     0.08900
H1262       H  0.63536320  0.37443074  0.28428840     0.06400
H1263       H  0.63298401  0.29292673  0.36630015     0.06300
C1264       C  0.67513309  0.17052370  0.37042849     0.03300
C1265       C  0.64456496  0.18596472  0.35476173    -0.12800
C1266       C  0.62958069  0.17068727  0.32382179     0.00800
C1267       C  0.64523512  0.14000298  0.30848331    -0.11400
C1268       C  0.67586837  0.12456846  0.32398725     0.03300
C1269       C  0.69080334  0.13986840  0.35495253    -0.10800
H1270       H  0.63327855  0.21051949  0.36582274     0.08900
H1271       H  0.63438637  0.12895440  0.28383927     0.06400
H1272       H  0.71528199  0.12874054  0.36621192     0.06300
C1273       C  0.83820082  0.33171826  0.37105250     0.03300
C1274       C  0.86861943  0.31617700  0.35515138    -0.12800
C1275       C  0.88401515  0.33194589  0.32465661     0.00800
C1276       C  0.86881128  0.36316279  0.30994893    -0.11400
C1277       C  0.83830346  0.37869787  0.32570224     0.03300
C1278       C  0.82305335  0.36297671  0.35630390    -0.10800
H1279       H  0.87955788  0.29127775  0.36576807     0.08900
H1280       H  0.87988021  0.37455546  0.28553724     0.06400
H1281       H  0.79867985  0.37418607  0.36774785     0.06300
C1282       C  0.67624727  0.12413378  0.16280402     0.03300
C1283       C  0.64563581  0.13971841  0.17825456    -0.12800
C1284       C  0.62983222  0.17009667  0.16251176     0.00800
C1285       C  0.64475727  0.18496967  0.13131405    -0.11400
C1286       C  0.67541797  0.16944346  0.11581498     0.03300
C1287       C  0.69107027  0.13896424  0.13155694    -0.10800
H1288       H  0.63488251  0.12899037  0.20310043     0.08900
H1289       H  0.63341402  0.20935822  0.11996865     0.06400
H1290       H  0.71554142  0.12771126  0.12036673     0.06300
O1291       O  0.68446248  0.18028706  0.93234166    -0.75100
O1292       O  0.71731719  0.21219093  0.89137327    -0.54000
C1293       C  0.69335704  0.18887175  0.90005046     0.78600
O1294       O  0.68582461  0.32297482  0.55406668    -0.59700
O1295       O  0.71789688  0.29037694  0.59505477    -0.52700
C1296       C  0.69453807  0.31428617  0.58634074     0.70600
O1297       O  0.68463308  0.32226415  0.93283866    -0.74300
O1298       O  0.71707539  0.29013851  0.89174087    -0.54800
C1299       C  0.69336804  0.31371297  0.90051472     0.76600
O1300       O  0.68533773  0.17881682  0.55391001    -0.59400
O1301       O  0.71716967  0.21156019  0.59498455    -0.52500
C1302       C  0.69377204  0.18770079  0.58621959     0.73200
Zr1303     Zr  0.70293814  0.19686788  0.49320571     2.54700
O1304       O  0.63751147  0.19705121  0.49368121    -0.80000
O1305       O  0.70562304  0.13129876  0.49308308    -0.93400
Zr1306     Zr  0.70287825  0.30447099  0.49338881     2.64700
O1307       O  0.63752870  0.30153738  0.99355001    -0.98300
O1308       O  0.70373507  0.37005370  0.49218145    -0.80400
O1309       O  0.70206469  0.25078254  0.95884118    -0.83800
O1310       O  0.70206536  0.25063169  0.52770048    -2.18500
O1311       O  0.82799305  0.17927447  0.55409084    -0.67200
O1312       O  0.79567618  0.21158659  0.59515285    -0.51700
C1313       C  0.81941672  0.18805545  0.58639822     0.71600
O1314       O  0.82907350  0.32126747  0.93274703    -0.60100
O1315       O  0.79554429  0.29033180  0.89165665    -0.52000
C1316       C  0.81984378  0.31324216  0.90045962     0.73400
O1317       O  0.82795108  0.32216970  0.55386576    -0.71500
O1318       O  0.79518090  0.29042673  0.59500684    -0.50100
C1319       C  0.81902291  0.31384547  0.58617558     0.74800
O1320       O  0.82834382  0.17988317  0.93257193    -0.66800
O1321       O  0.79628927  0.21254571  0.89159408    -0.54000
C1322       C  0.81995839  0.18894983  0.90030863     0.73200
Zr1323     Zr  0.81012844  0.19683974  0.99333855     2.77500
O1324       O  0.87559774  0.19730142  0.99277284    -0.97500
O1325       O  0.80824168  0.13127119  0.99388248    -0.78400
Zr1326     Zr  0.81031865  0.30434039  0.99330293     2.70100
O1327       O  0.87569891  0.30364834  0.49433349    -0.79600
O1328       O  0.80821385  0.36989375  0.99257041    -0.98700
Zr1329     Zr  0.75650277  0.25099601  0.92545107     2.21500
Zr1330     Zr  0.75650516  0.25065968  0.56121436     2.11100
O1331       O  0.81099667  0.25054790  0.52769311    -2.47400
O1332       O  0.81100457  0.25062064  0.95876223    -0.79400
O1333       O  0.75645716  0.19598104  0.52791442    -0.71600
O1334       O  0.75663752  0.30549901  0.95900296    -2.32600
O1335       O  0.75658301  0.19617430  0.95871812    -2.28800
O1336       O  0.75659759  0.30520797  0.52783203    -0.73400
H1337       H  0.68136975  0.25060537  0.54336516     0.78600
H1338       H  0.75668589  0.32631928  0.94345229     0.79700
H1339       H  0.83170519  0.25058611  0.54330120     0.82000
H1340       H  0.75662570  0.17552682  0.94294848     0.79600
H1341       H  0.72639638  0.37677675  0.00405357     0.42600
H1342       H  0.79463315  0.37642385  0.51444132     0.41600
H1343       H  0.88227649  0.27923731  0.98555216     0.41200
H1344       H  0.88247199  0.21091522  0.51457895     0.39200
H1345       H  0.78728791  0.12519331  0.50893967     0.42300
H1346       H  0.72128105  0.12507110  0.97264775     0.37100
H1347       H  0.63080358  0.21957693  0.98149466     0.43200
H1348       H  0.63120415  0.28813361  0.51559590     0.39600
H1349       H  0.88249062  0.17187028  0.99694265     0.44500
H1350       H  0.68105818  0.12358926  0.48632748     0.43300
H1351       H  0.62966910  0.32658197  0.49831688     0.43400
H1352       H  0.83345228  0.37743641  0.99644687     0.43800
O1353       O  0.68828649  0.44065656  0.67130519    -0.75100
O1354       O  0.71874772  0.39926853  0.70501566    -0.54000
C1355       C  0.69614614  0.40818554  0.68057231     0.78600
O1356       O  0.82968174  0.06232551  0.67270346    -0.59700
O1357       O  0.79736702  0.10379764  0.70460605    -0.52700
C1358       C  0.82098867  0.09481810  0.68112753     0.70600
O1359       O  0.82843809  0.44031079  0.67200306    -0.74300
O1360       O  0.79632099  0.39899507  0.70431706    -0.54800
C1361       C  0.81967199  0.40782664  0.68050408     0.76600
O1362       O  0.68626805  0.06237504  0.67293215    -0.59400
O1363       O  0.71872645  0.10389325  0.70458345    -0.52500
C1364       C  0.69492370  0.09487642  0.68131992     0.73200
Zr1365     Zr  0.70450615  0.00157859  0.69026731     2.54700
O1366       O  0.70522390  0.00245400  0.62502536    -0.80000
O1367       O  0.63907364  0.00113652  0.69246060    -0.93400
Zr1368     Zr  0.81158565  0.00144734  0.69017381     2.64700
O1369       O  0.81001155  0.00113885  0.62490125    -0.98300
O1370       O  0.87703433  0.00151750  0.69063000    -0.80400
O1371       O  0.75799691  0.46681743  0.68968349    -0.83800
O1372       O  0.75806544  0.03623860  0.68933707    -2.18500
O1373       O  0.68559298  0.06262633  0.81388032    -0.67200
O1374       O  0.71863497  0.10400185  0.78257940    -0.51700
C1375       C  0.69452915  0.09511453  0.80562156     0.71600
O1376       O  0.82838149  0.44089368  0.81631879    -0.60100
O1377       O  0.79684421  0.39955919  0.78353010    -0.52000
C1378       C  0.81993936  0.40841623  0.80753804     0.73400
O1379       O  0.82927457  0.06269131  0.81490650    -0.71500
O1380       O  0.79737562  0.10401668  0.78245479    -0.50100
C1381       C  0.82078570  0.09516485  0.80615760     0.74800
O1382       O  0.68693995  0.44061252  0.81541098    -0.66800
O1383       O  0.71866353  0.39920037  0.78287074    -0.54000
C1384       C  0.69528214  0.40809844  0.80661899     0.73200
Zr1385     Zr  0.70421720  0.00162103  0.79710623     2.77500
O1386       O  0.70585163  0.00142688  0.86237644    -0.97500
O1387       O  0.63875759  0.00096831  0.79565410    -0.78400
Zr1388     Zr  0.81162740  0.00172006  0.79703777     2.70100
O1389       O  0.81213162  0.00179038  0.86228559    -0.79600
O1390       O  0.87699590  0.00073879  0.79343883    -0.98700
Zr1391     Zr  0.75795556  0.43323463  0.74396114     2.21500
Zr1392     Zr  0.75802132  0.07002132  0.74364043     2.11100
O1393       O  0.75789350  0.03623761  0.79793529    -2.47400
O1394       O  0.75811076  0.46699446  0.79813396    -0.79400
O1395       O  0.70359525  0.03640583  0.74365329    -0.71600
O1396       O  0.81257479  0.46678440  0.74366663    -2.32600
O1397       O  0.70350401  0.46696761  0.74381916    -2.28800
O1398       O  0.81248777  0.03640174  0.74355364    -0.73400
H1399       H  0.75803375  0.05189595  0.66864605     0.78600
H1400       H  0.83322977  0.45099805  0.74370668     0.79700
H1401       H  0.75785845  0.05193279  0.81859364     0.82000
H1402       H  0.68277971  0.45127731  0.74381724     0.79600
H1403       H  0.88384111  0.48351292  0.70862845     0.42600
H1404       H  0.88312771  0.02050660  0.77667924     0.41600
H1405       H  0.78790654  0.49577143  0.86924335     0.41200
H1406       H  0.71775570  0.02434317  0.86899445     0.39200
H1407       H  0.63235752  0.01746256  0.77578668     0.42300
H1408       H  0.63244855  0.48040181  0.70650328     0.37100
H1409       H  0.72661592  0.48608010  0.61886635     0.43200
H1410       H  0.79733527  0.02362062  0.61823552     0.39600
H1411       H  0.68046665  0.00471687  0.86970386     0.44500
H1412       H  0.63161438  0.99555722  0.66759277     0.43300
H1413       H  0.83527851  0.00530543  0.61760343     0.43400
H1414       H  0.88515373  0.00944513  0.81717383     0.43800
O1415       O  0.94666097  0.32254004  0.67005484    -0.75100
O1416       O  0.90545706  0.29122042  0.70321961    -0.54000
C1417       C  0.91424933  0.31416170  0.67898729     0.78600
O1418       O  0.56797349  0.18002809  0.67195727    -0.59700
O1419       O  0.60913818  0.21219508  0.70426105    -0.52700
C1420       C  0.60033606  0.18853657  0.68073344     0.70600
O1421       O  0.94647867  0.18101191  0.67123299    -0.74300
O1422       O  0.90526860  0.21351857  0.70322167    -0.54800
C1423       C  0.91408958  0.18982215  0.67973700     0.76600
O1424       O  0.56847395  0.32397091  0.67196685    -0.59400
O1425       O  0.60943334  0.29144291  0.70421455    -0.52500
C1426       C  0.60081857  0.31517072  0.68066733     0.73200
Zr1427     Zr  0.50753181  0.30616814  0.68949776     2.54700
O1428       O  0.50883204  0.30516197  0.62428684    -0.80000
O1429       O  0.50759736  0.37175670  0.69233032    -0.93400
Zr1430     Zr  0.50727078  0.19856161  0.68907505     2.64700
O1431       O  0.50777985  0.20105246  0.62380680    -0.98300
O1432       O  0.50632080  0.13296303  0.68904434    -0.80400
O1433       O  0.97279267  0.25240155  0.68842905    -0.83800
O1434       O  0.54187130  0.25228420  0.68855573    -2.18500
O1435       O  0.56798608  0.32370792  0.81383547    -0.67200
O1436       O  0.60919815  0.29074684  0.78226409    -0.51700
C1437       C  0.60038139  0.31463385  0.80556883     0.71600
O1438       O  0.94617320  0.18182442  0.81488496    -0.60100
O1439       O  0.90507452  0.21339912  0.78189832    -0.52000
C1440       C  0.91381689  0.19029821  0.80598974     0.73400
O1441       O  0.56775970  0.18056499  0.81414155    -0.71500
O1442       O  0.60909210  0.21236899  0.78159563    -0.50100
C1443       C  0.60017743  0.18898951  0.80536130     0.74800
O1444       O  0.94592316  0.32280124  0.81455486    -0.66800
O1445       O  0.90482675  0.29041104  0.78235864    -0.54000
C1446       C  0.91355536  0.31386263  0.80610996     0.73200
Zr1447     Zr  0.50705808  0.30587483  0.79639544     2.77500
O1448       O  0.50633782  0.30465638  0.86169624    -0.97500
O1449       O  0.50660917  0.37144098  0.79413391    -0.78400
Zr1450     Zr  0.50702766  0.19828317  0.79613351     2.70100
O1451       O  0.50754467  0.19953988  0.86138142    -0.79600
O1452       O  0.50535241  0.13273721  0.79356924    -0.98700
Zr1453     Zr  0.93915683  0.25227939  0.74264237     2.21500
Zr1454     Zr  0.57529242  0.25192976  0.74290068     2.11100
O1455       O  0.54148910  0.25202978  0.79711374    -2.47400
O1456       O  0.97248599  0.25219143  0.79694058    -0.78200
O1457       O  0.54199899  0.30662257  0.74306226    -0.71600
O1458       O  0.97267376  0.19763766  0.74264788    -2.32600
O1459       O  0.97256382  0.30702013  0.74283428    -2.28800
O1460       O  0.54179037  0.19734217  0.74267137    -0.73400
H1461       H  0.55766058  0.25233959  0.66798313     0.78600
H1462       H  0.95698682  0.17688839  0.74264968     0.79700
H1463       H  0.55709662  0.25193989  0.81779834     0.82000
H1464       H  0.95679231  0.32770522  0.74283148     0.79600
H1465       H  0.02123317  0.12611260  0.71028752     0.42600
H1466       H  0.52731672  0.12591394  0.78017392     0.41600
H1467       H  0.99497106  0.22232634  0.86777346     0.41200
H1468       H  0.52639564  0.28847064  0.86841204     0.39200
H1469       H  0.51707465  0.37737348  0.77043814     0.42300
H1470       H  0.98502338  0.37815006  0.70483647     0.37100
H1471       H  0.99364913  0.28424559  0.61763684     0.43200
H1472       H  0.52829911  0.21690991  0.61769004     0.39600
H1473       H  0.51452484  0.32897387  0.86894906     0.44500
H1474       H  0.50409412  0.37955940  0.66718822     0.43300
H1475       H  0.51558891  0.17669956  0.61623762     0.43400
H1476       H  0.51009017  0.12491764  0.81850446     0.43800
C1477       C  0.88459983  0.17110958  0.66170578     0.03300
C1478       C  0.86878085  0.18612387  0.63105172    -0.12800
C1479       C  0.83822063  0.17011485  0.61588080     0.00800
C1480       C  0.82339612  0.13918626  0.63156985    -0.11400
C1481       C  0.83907011  0.12425753  0.66233145     0.03300
C1482       C  0.86968937  0.14019773  0.67733155    -0.10800
H1483       H  0.87947533  0.21084059  0.61977027     0.08900
H1484       H  0.79894096  0.12760763  0.62071353     0.06400
H1485       H  0.88106192  0.12939013  0.70185022     0.06300
C1486       C  0.88459968  0.33252467  0.66074873     0.03300
C1487       C  0.86899392  0.36303349  0.67653387    -0.12800
C1488       C  0.83783804  0.37826217  0.66183236     0.00800
C1489       C  0.82213928  0.36279408  0.63134996    -0.11400
C1490       C  0.83760387  0.33223323  0.61552171     0.03300
C1491       C  0.86888249  0.31715752  0.63020755    -0.10800
H1492       H  0.88032224  0.37411149  0.70095094     0.08900
H1493       H  0.79731581  0.37376555  0.62070878     0.06400
H1494       H  0.88009041  0.29273224  0.61879483     0.06300
C1495       C  0.83856308  0.17091212  0.87078921     0.03300
C1496       C  0.82370438  0.13976788  0.85556448    -0.12800
C1497       C  0.83899584  0.12475146  0.82463705     0.00800
C1498       C  0.86931506  0.14079732  0.80908458    -0.11400
C1499       C  0.88431635  0.17184887  0.82432050     0.03300
C1500       C  0.86882460  0.18699883  0.85508743    -0.10800
H1501       H  0.79945222  0.12814395  0.86686181     0.08900
H1502       H  0.88044910  0.12988087  0.78449001     0.06400
H1503       H  0.87956032  0.21182012  0.86608134     0.06300
C1504       C  0.67752970  0.37876473  0.66227281     0.03300
C1505       C  0.64661217  0.36369501  0.67769327    -0.12800
C1506       C  0.63052808  0.33330676  0.66222837     0.00800
C1507       C  0.64550185  0.31794822  0.63128953    -0.11400
C1508       C  0.67648498  0.33291566  0.61586454     0.03300
C1509       C  0.69246894  0.36333808  0.63138475    -0.10800
H1510       H  0.63581384  0.37485423  0.70232815     0.08900
H1511       H  0.63391503  0.29361408  0.62007857     0.06400
H1512       H  0.71715375  0.37416158  0.62023534     0.06300
C1513       C  0.67530378  0.33243896  0.87100836     0.03300
C1514       C  0.69117712  0.36311006  0.85575046    -0.12800
C1515       C  0.67651092  0.37856431  0.82473716     0.00800
C1516       C  0.64595191  0.36324201  0.80892903    -0.11400
C1517       C  0.62989872  0.33272441  0.82420390     0.03300
C1518       C  0.64461406  0.31732378  0.85522573    -0.10800
H1519       H  0.71565265  0.37407537  0.86716703     0.08900
H1520       H  0.63538801  0.37433518  0.78417845     0.06400
H1521       H  0.63305883  0.29286853  0.86622787     0.06300
C1522       C  0.67517688  0.17050324  0.87043858     0.03300
C1523       C  0.64456369  0.18591151  0.85481983    -0.12800
C1524       C  0.62958761  0.17066055  0.82385999     0.00800
C1525       C  0.64528508  0.14002916  0.80846697    -0.11400
C1526       C  0.67594750  0.12462250  0.82393291     0.03300
C1527       C  0.69088991  0.13990376  0.85490101    -0.10800
H1528       H  0.63324539  0.21043127  0.86592391     0.08900
H1529       H  0.63444100  0.12899765  0.78381290     0.06400
H1530       H  0.71539463  0.12879625  0.86612471     0.06300
C1531       C  0.83816460  0.33178829  0.87108742     0.03300
C1532       C  0.86858375  0.31622341  0.85520983    -0.12800
C1533       C  0.88402001  0.33198695  0.82473382     0.00800
C1534       C  0.86886095  0.36323231  0.81003938    -0.11400
C1535       C  0.83835311  0.37878572  0.82577684     0.03300
C1536       C  0.82305958  0.36306663  0.85635206    -0.10800
H1537       H  0.87949099  0.29131227  0.86583083     0.08900
H1538       H  0.87995597  0.37462652  0.78564068     0.06400
H1539       H  0.79868367  0.37428971  0.86777958     0.06300
C1540       C  0.67633393  0.12418547  0.66284316     0.03300
C1541       C  0.64568835  0.13972893  0.67825969    -0.12800
C1542       C  0.62980784  0.17002524  0.66244360     0.00800
C1543       C  0.64468040  0.18484360  0.63119700    -0.11400
C1544       C  0.67539937  0.16937465  0.61575970     0.03300
C1545       C  0.69114127  0.13898970  0.63158300    -0.10800
H1546       H  0.63495843  0.12902737  0.70312691     0.08900
H1547       H  0.63327450  0.20917234  0.61978786     0.06400
H1548       H  0.71565076  0.12778004  0.62043131     0.06300
O1549       O  0.68472154  0.67971765  0.43245601    -0.75100
O1550       O  0.71697291  0.71214913  0.39141287    -0.54000
C1551       C  0.69329907  0.68854392  0.40015625     0.78600
O1552       O  0.68556978  0.82281630  0.05406518    -0.59700
O1553       O  0.71778493  0.79032242  0.09503074    -0.52700
C1554       C  0.69435415  0.81418044  0.08634340     0.70600
O1555       O  0.68464061  0.82226753  0.43273384    -0.74300
O1556       O  0.71690726  0.79001434  0.39156761    -0.54800
C1557       C  0.69331108  0.81367413  0.40039637     0.76600
O1558       O  0.68496146  0.67865837  0.05366286    -0.59400
O1559       O  0.71716117  0.71117164  0.09463209    -0.52500
C1560       C  0.69355095  0.68746509  0.08594939     0.73200
Zr1561     Zr  0.70310035  0.69674859  0.99316074     2.54700
O1562       O  0.63767984  0.69804000  0.99332825    -0.80000
O1563       O  0.70559783  0.63118424  0.99371971    -0.93400
Zr1564     Zr  0.70245174  0.80417600  0.99335114     2.64700
O1565       O  0.63723870  0.79916602  0.49351806    -0.98300
O1566       O  0.70096669  0.86974837  0.99257943    -0.80400
O1567       O  0.70203280  0.75061828  0.45871551    -0.83800
O1568       O  0.70205242  0.75042108  0.02773534    -2.18500
O1569       O  0.82835171  0.67953216  0.05372198    -0.67200
O1570       O  0.79585694  0.71161094  0.09483502    -0.51700
C1571       C  0.81967489  0.68816579  0.08604700     0.71600
O1572       O  0.82862578  0.82190510  0.43277251    -0.60100
O1573       O  0.79574269  0.79032277  0.39163323    -0.52000
C1574       C  0.81973897  0.81355653  0.40047983     0.73400
O1575       O  0.82778102  0.82230180  0.05385742    -0.71500
O1576       O  0.79511336  0.79045617  0.09501594    -0.50100
C1577       C  0.81895996  0.81387637  0.08618276     0.74800
O1578       O  0.82837425  0.67990464  0.43239740    -0.66800
O1579       O  0.79612933  0.71238606  0.39142612    -0.54000
C1580       C  0.81986649  0.68884924  0.40013894     0.73200
Zr1581     Zr  0.81033786  0.69720036  0.49309543     2.77500
O1582       O  0.87579465  0.69858663  0.49210155    -0.97500
O1583       O  0.80893892  0.63163958  0.49355650    -0.78400
Zr1584     Zr  0.80998587  0.80461462  0.49321081     2.70100
O1585       O  0.87540629  0.80315747  0.99392810    -0.79600
O1586       O  0.80801394  0.87017120  0.49227007    -0.98700
Zr1587     Zr  0.75641679  0.75100605  0.42525110     2.21500
Zr1588     Zr  0.75648871  0.75069974  0.06113360     2.11100
O1589       O  0.81094164  0.75091840  0.02755711    -2.47400
O1590       O  0.81089809  0.75097954  0.45853475    -0.79400
O1591       O  0.75674231  0.69614159  0.02769159    -0.71600
O1592       O  0.75626122  0.80545636  0.45893783    -2.32600
O1593       O  0.75671950  0.69626457  0.45859961    -2.28800
O1594       O  0.75625079  0.80525954  0.02769973    -0.73400
H1595       H  0.68141498  0.75029001  0.04347026     0.78600
H1596       H  0.75624365  0.82627461  0.44338541     0.79700
H1597       H  0.83166278  0.75101489  0.04314713     0.82000
H1598       H  0.75679833  0.67557415  0.44288520     0.79600
H1599       H  0.72657007  0.87701085  0.48861680     0.42600
H1600       H  0.79350462  0.87676420  0.01377663     0.41600
H1601       H  0.88174678  0.78121562  0.48009220     0.41200
H1602       H  0.88258405  0.71261913  0.01397405     0.39200
H1603       H  0.78761753  0.62551772  0.00787508     0.42300
H1604       H  0.71884035  0.62474502  0.47136716     0.37100
H1605       H  0.63121096  0.71680649  0.47616221     0.43200
H1606       H  0.63149189  0.78381557  0.01467479     0.39600
H1607       H  0.88308600  0.67345686  0.49727908     0.44500
H1608       H  0.68059782  0.62348509  0.98877939     0.43300
H1609       H  0.62851642  0.82325692  0.00004189     0.43400
H1610       H  0.83279524  0.87771624  0.49840121     0.43800
O1611       O  0.68801074  0.94071321  0.17126664    -0.75100
O1612       O  0.71869912  0.89930858  0.20476774    -0.54000
C1613       C  0.69595656  0.90823970  0.18044951     0.78600
O1614       O  0.82974870  0.56246816  0.17268646    -0.59700
O1615       O  0.79732919  0.60392020  0.20449758    -0.52700
C1616       C  0.82100025  0.59498072  0.18104367     0.70600
O1617       O  0.82849623  0.94044151  0.17178493    -0.74300
O1618       O  0.79667165  0.89905055  0.20428346    -0.54800
C1619       C  0.81990719  0.90794739  0.18037083     0.76600
O1620       O  0.68579483  0.56236256  0.17322066    -0.59400
O1621       O  0.71887083  0.60385012  0.20425567    -0.52500
C1622       C  0.69475253  0.59485845  0.18130336     0.73200
Zr1623     Zr  0.70443829  0.50160850  0.19029663     2.54700
O1624       O  0.70637009  0.50246070  0.12508030    -0.80000
O1625       O  0.63894882  0.50097699  0.19113180    -0.93400
Zr1626     Zr  0.81162600  0.50150576  0.19017345     2.64700
O1627       O  0.81004416  0.50095754  0.12491649    -0.98300
O1628       O  0.87708214  0.50191746  0.19075762    -0.80400
O1629       O  0.75800571  0.96671594  0.18955209    -0.83800
O1630       O  0.75803418  0.53622999  0.18925852    -2.18500
O1631       O  0.68588991  0.56262580  0.31401275    -0.67200
O1632       O  0.71840616  0.60402039  0.28218089    -0.51700
C1633       C  0.69455093  0.59511851  0.30547474     0.71600
O1634       O  0.82843634  0.94090389  0.31606284    -0.60100
O1635       O  0.79680699  0.89949696  0.28344795    -0.52000
C1636       C  0.81995940  0.90842383  0.30737030     0.73400
O1637       O  0.82973189  0.56259298  0.31445643    -0.71500
O1638       O  0.79714799  0.60390163  0.28265536    -0.50100
C1639       C  0.82089762  0.59505429  0.30602327     0.74800
O1640       O  0.68674355  0.94063486  0.31516967    -0.66800
O1641       O  0.71887773  0.89919296  0.28303256    -0.54000
C1642       C  0.69532432  0.90812512  0.30660760     0.73200
Zr1643     Zr  0.70437873  0.50158605  0.29723404     2.77500
O1644       O  0.70640140  0.50178253  0.36249378    -0.97500
O1645       O  0.63893788  0.50024618  0.29594345    -0.78400
Zr1646     Zr  0.81178676  0.50163016  0.29696341     2.70100
O1647       O  0.81259710  0.50297377  0.36218867    -0.79600
O1648       O  0.87715038  0.50029189  0.29326923    -0.98700
Zr1649     Zr  0.75797460  0.93312992  0.24382678     2.21500
Zr1650     Zr  0.75802007  0.57000847  0.24352856     2.11100
O1651       O  0.75806188  0.53616830  0.29779844    -2.47400
O1652       O  0.75793111  0.96698036  0.29793953    -0.79400
O1653       O  0.70357829  0.53638009  0.24375004    -0.71600
O1654       O  0.81249311  0.96679160  0.24369809    -2.32600
O1655       O  0.70353390  0.96685651  0.24372288    -2.28800
O1656       O  0.81253145  0.53643348  0.24352970    -0.73400
H1657       H  0.75798227  0.55188465  0.16856556     0.78600
H1658       H  0.83317930  0.95104821  0.24374721     0.79700
H1659       H  0.75807668  0.55189207  0.31843333     0.82000
H1660       H  0.68282772  0.95114451  0.24370248     0.79600
H1661       H  0.88369851  0.98246940  0.20808622     0.42600
H1662       H  0.88341175  0.52053206  0.27712577     0.41600
H1663       H  0.78744070  0.99389958  0.36904569     0.41200
H1664       H  0.71982801  0.52391424  0.36885197     0.39200
H1665       H  0.63246951  0.51298692  0.27353091     0.42300
H1666       H  0.63273992  0.97972479  0.20685373     0.37100
H1667       H  0.73003251  0.99399405  0.11870966     0.43200
H1668       H  0.79591175  0.52254678  0.11824371     0.39600
H1669       H  0.68133911  0.50680368  0.36994810     0.44500
H1670       H  0.63202339  0.49399084  0.16646059     0.43300
H1671       H  0.83497663  0.50676287  0.11758376     0.43400
H1672       H  0.88537354  0.50820578  0.31725619     0.43800
O1673       O  0.94703610  0.82283071  0.16991043    -0.75100
O1674       O  0.90570720  0.79165380  0.20304661    -0.54000
C1675       C  0.91459216  0.81452069  0.17876358     0.78600
O1676       O  0.56807674  0.68025758  0.17227212    -0.59700
O1677       O  0.60922991  0.71245664  0.20456179    -0.52700
C1678       C  0.60044374  0.68881713  0.18100469     0.70600
O1679       O  0.94640005  0.68139997  0.17122826    -0.74300
O1680       O  0.90516436  0.71391868  0.20318191    -0.54800
C1681       C  0.91400408  0.69021752  0.17969887     0.76600
O1682       O  0.56851548  0.82381474  0.17214001    -0.59400
O1683       O  0.60944574  0.79149808  0.20462922    -0.52500
C1684       C  0.60084261  0.81508848  0.18094774     0.73200
Zr1685     Zr  0.50756360  0.80613373  0.18958147     2.54700
O1686       O  0.50908490  0.80474738  0.12438070    -0.80000
O1687       O  0.50765837  0.87169889  0.19219713    -0.93400
Zr1688     Zr  0.50727319  0.69863659  0.18932416     2.64700
O1689       O  0.50803978  0.70061517  0.12403384    -0.98300
O1690       O  0.50578292  0.63304810  0.18985666    -0.80400
O1691       O  0.97278170  0.75254267  0.18854520    -0.83800
O1692       O  0.54192185  0.75229205  0.18881374    -2.18500
O1693       O  0.56790633  0.82431929  0.31360744    -0.67200
O1694       O  0.60909219  0.79074259  0.28266357    -0.51700
C1695       C  0.60028194  0.81494377  0.30563351     0.71600
O1696       O  0.94603840  0.68216305  0.31491127    -0.60100
O1697       O  0.90492373  0.71345149  0.28166555    -0.52000
C1698       C  0.91368080  0.69045286  0.30585330     0.73400
O1699       O  0.56761216  0.68071653  0.31441239    -0.71500
O1700       O  0.60901008  0.71234234  0.28180168    -0.50100
C1701       C  0.60005950  0.68899103  0.30557481     0.74800
O1702       O  0.94597966  0.82279143  0.31486152    -0.66800
O1703       O  0.90480781  0.79072887  0.28243277    -0.54000
C1704       C  0.91359636  0.81401941  0.30631547     0.73200
Zr1705     Zr  0.50697873  0.80624025  0.29648123     2.77500
O1706       O  0.50686776  0.80586424  0.36180755    -0.97500
O1707       O  0.50621109  0.87182313  0.29406257    -0.78400
Zr1708     Zr  0.50689019  0.69854160  0.29632532     2.70100
O1709       O  0.50739026  0.69829067  0.36156692    -0.79600
O1710       O  0.50494268  0.63305631  0.29278103    -0.98700
Zr1711     Zr  0.93908968  0.75257670  0.24270822     2.21500
Zr1712     Zr  0.57522075  0.75202761  0.24323573     2.11100
O1713       O  0.54132651  0.75231593  0.29742312    -2.47400
O1714       O  0.97249889  0.75237577  0.29702195    -0.78200
O1715       O  0.54196381  0.80675258  0.24318204    -0.71600
O1716       O  0.97256551  0.69791805  0.24271688    -2.32600
O1717       O  0.97263296  0.80723069  0.24294777    -2.28800
O1718       O  0.54175249  0.69743595  0.24295137    -0.73400
H1719       H  0.55773701  0.75231516  0.16826031     0.78600
H1720       H  0.95684545  0.67719506  0.24269181     0.79700
H1721       H  0.55689021  0.75223635  0.31814191     0.82000
H1722       H  0.95691911  0.82796106  0.24290119     0.79600
H1723       H  0.02316530  0.62603039  0.20830663     0.42600
H1724       H  0.52640708  0.62641734  0.27851655     0.41600
H1725       H  0.99464587  0.72091385  0.36819668     0.41200
H1726       H  0.52847700  0.79185785  0.36859162     0.39200
H1727       H  0.51596656  0.87774261  0.27006593     0.42300
H1728       H  0.98465224  0.87821296  0.20380337     0.37100
H1729       H  0.99308202  0.78463360  0.11784553     0.43200
H1730       H  0.52932538  0.71539165  0.11783544     0.39600
H1731       H  0.51264265  0.83098620  0.36865742     0.44500
H1732       H  0.50551710  0.87941011  0.16687539     0.43300
H1733       H  0.51464396  0.67584492  0.11666752     0.43400
H1734       H  0.51054658  0.62482935  0.31740499     0.43800
C1735       C  0.88455099  0.67144806  0.16164414     0.03300
C1736       C  0.86891936  0.68628153  0.13081221    -0.12800
C1737       C  0.83844640  0.67019253  0.11555344     0.00800
C1738       C  0.82355042  0.63930896  0.13132047    -0.11400
C1739       C  0.83908628  0.62448346  0.16222661     0.03300
C1740       C  0.86959610  0.64056895  0.17731957    -0.10800
H1741       H  0.87965954  0.71095647  0.11948035     0.08900
H1742       H  0.79914427  0.62768859  0.12040399     0.06400
H1743       H  0.88087589  0.62987292  0.20192782     0.06300
C1744       C  0.88499696  0.83287918  0.16040185     0.03300
C1745       C  0.86950250  0.86350366  0.17606591    -0.12800
C1746       C  0.83810042  0.87846169  0.16162541     0.00800
C1747       C  0.82216859  0.86277002  0.13138492    -0.11400
C1748       C  0.83762213  0.83223075  0.11552416     0.03300
C1749       C  0.86904795  0.81728496  0.13007059    -0.10800
H1750       H  0.88101686  0.87477919  0.20030653     0.08900
H1751       H  0.79720271  0.87359429  0.12092577     0.06400
H1752       H  0.88020217  0.79280719  0.11872057     0.06300
C1753       C  0.83849534  0.67082273  0.37063389     0.03300
C1754       C  0.82373544  0.63962462  0.35543291    -0.12800
C1755       C  0.83907242  0.62464665  0.32450906     0.00800
C1756       C  0.86932974  0.64079072  0.30893246    -0.11400
C1757       C  0.88421829  0.67190958  0.32414805     0.03300
C1758       C  0.86870468  0.68699276  0.35492807    -0.10800
H1759       H  0.79952042  0.62793136  0.36673927     0.08900
H1760       H  0.88048666  0.62990851  0.28433330     0.06400
H1761       H  0.87937235  0.71184345  0.36592258     0.06300
C1762       C  0.67730752  0.87881353  0.16219674     0.03300
C1763       C  0.64651083  0.86366708  0.17776357    -0.12800
C1764       C  0.63052570  0.83316246  0.16244815     0.00800
C1765       C  0.64546878  0.81774627  0.13151697    -0.11400
C1766       C  0.67631265  0.83281701  0.11590544     0.03300
C1767       C  0.69219087  0.86337677  0.13127903    -0.10800
H1768       H  0.63573983  0.87485624  0.20239891     0.08900
H1769       H  0.63394348  0.79332600  0.12042941     0.06400
H1770       H  0.71678619  0.87428205  0.12001708     0.06300
C1771       C  0.67530196  0.83246485  0.37093261     0.03300
C1772       C  0.69125840  0.86308698  0.35568012    -0.12800
C1773       C  0.67654690  0.87863863  0.32474214     0.00800
C1774       C  0.64586282  0.86349715  0.30902664    -0.11400
C1775       C  0.62979356  0.83298502  0.32426532     0.03300
C1776       C  0.64455710  0.81745373  0.35518689    -0.10800
H1777       H  0.71580019  0.87395057  0.36705263     0.08900
H1778       H  0.63525424  0.87468174  0.28433551     0.06400
H1779       H  0.63297485  0.79299298  0.36615132     0.06300
C1780       C  0.67503970  0.67016265  0.37060725     0.03300
C1781       C  0.64435487  0.68556004  0.35510938    -0.12800
C1782       C  0.62946895  0.67053406  0.32399782     0.00800
C1783       C  0.64534365  0.64011435  0.30834625    -0.11400
C1784       C  0.67596194  0.62460109  0.32381551     0.03300
C1785       C  0.69079469  0.63966191  0.35493670    -0.10800
H1786       H  0.63296529  0.70996918  0.36637950     0.08900
H1787       H  0.63461216  0.62927572  0.28355977     0.06400
H1788       H  0.71529051  0.62851094  0.36613968     0.06300
C1789       C  0.83814891  0.83208247  0.37115812     0.03300
C1790       C  0.86867641  0.81655811  0.35544712    -0.12800
C1791       C  0.88410975  0.83221056  0.32491502     0.00800
C1792       C  0.86889995  0.86333486  0.31004547    -0.11400
C1793       C  0.83836108  0.87888756  0.32568892     0.03300
C1794       C  0.82303557  0.86328032  0.35629362    -0.10800
H1795       H  0.87962187  0.79171860  0.36619148     0.08900
H1796       H  0.87998223  0.87462983  0.28559342     0.06400
H1797       H  0.79861356  0.87450459  0.36762319     0.06300
C1798       C  0.67616161  0.62419152  0.16283535     0.03300
C1799       C  0.64573839  0.63997157  0.17844235    -0.12800
C1800       C  0.62990441  0.67030655  0.16265925     0.00800
C1801       C  0.64463482  0.68495901  0.13124636    -0.11400
C1802       C  0.67514654  0.66925061  0.11559154     0.03300
C1803       C  0.69079054  0.63878975  0.13138552    -0.10800
H1804       H  0.63512176  0.62938858  0.20340862     0.08900
H1805       H  0.63327494  0.70931636  0.11985476     0.06400
H1806       H  0.71513990  0.62738705  0.12008273     0.06300
O1807       O  0.68476402  0.67962323  0.93245128    -0.75100
O1808       O  0.71688142  0.71223842  0.89144545    -0.54000
C1809       C  0.69327705  0.68855704  0.90016855     0.78600
O1810       O  0.68564186  0.82294776  0.55402640    -0.59700
O1811       O  0.71772158  0.79032458  0.59499818    -0.52700
C1812       C  0.69435375  0.81424393  0.58630459     0.70600
O1813       O  0.68455471  0.82223231  0.93278046    -0.74300
O1814       O  0.71696837  0.79014948  0.89160285    -0.54800
C1815       C  0.69331015  0.81373986  0.90044030     0.76600
O1816       O  0.68508392  0.67870588  0.55371258    -0.59400
O1817       O  0.71723361  0.71125127  0.59469365    -0.52500
C1818       C  0.69365393  0.68752056  0.58600174     0.73200
Zr1819     Zr  0.70312929  0.69679555  0.49318043     2.54700
O1820       O  0.63770856  0.69770732  0.49353040    -0.80000
O1821       O  0.70585056  0.63124345  0.49362933    -0.93400
Zr1822     Zr  0.70252315  0.80426930  0.49332893     2.64700
O1823       O  0.63718402  0.79889730  0.99351921    -0.98300
O1824       O  0.70123253  0.86985951  0.49259597    -0.80400
O1825       O  0.70199131  0.75056607  0.95869198    -0.83800
O1826       O  0.70210792  0.75050518  0.52771415    -2.18500
O1827       O  0.82830294  0.67951725  0.55381134    -0.67200
O1828       O  0.79587708  0.71168484  0.59491223    -0.51700
C1829       C  0.81965689  0.68819372  0.58613739     0.71600
O1830       O  0.82855868  0.82196967  0.93273951    -0.60100
O1831       O  0.79570019  0.79035031  0.89160901    -0.52000
C1832       C  0.81968495  0.81360148  0.90044297     0.73400
O1833       O  0.82782186  0.82234101  0.55382565    -0.71500
O1834       O  0.79518748  0.79049529  0.59500388    -0.50100
C1835       C  0.81902229  0.81392022  0.58615585     0.74800
O1836       O  0.82839259  0.68009520  0.93231254    -0.66800
O1837       O  0.79599656  0.71243968  0.89135303    -0.54000
C1838       C  0.81980214  0.68897635  0.90005745     0.73200
Zr1839     Zr  0.81035191  0.69726249  0.99304918     2.77500
O1840       O  0.87580842  0.69885849  0.99226176    -0.97500
O1841       O  0.80912553  0.63170051  0.99346554    -0.78400
Zr1842     Zr  0.80996184  0.80464625  0.99320967     2.70100
O1843       O  0.87541570  0.80306339  0.49396986    -0.79600
O1844       O  0.80781036  0.87019728  0.99234816    -0.98700
Zr1845     Zr  0.75638627  0.75104513  0.92526125     2.21500
Zr1846     Zr  0.75652739  0.75075067  0.56114896     2.11100
O1847       O  0.81097801  0.75089192  0.52756327    -2.47400
O1848       O  0.81089771  0.75103810  0.95849733    -0.79400
O1849       O  0.75674073  0.69616223  0.52774757    -0.71600
O1850       O  0.75620825  0.80545646  0.95898666    -2.32600
O1851       O  0.75671229  0.69628509  0.95858816    -2.28800
O1852       O  0.75629782  0.80531928  0.52772057    -0.73400
H1853       H  0.68147076  0.75038139  0.54344922     0.78600
H1854       H  0.75616997  0.82628746  0.94345189     0.79700
H1855       H  0.83170627  0.75098952  0.54314419     0.82000
H1856       H  0.75680998  0.67560186  0.94286404     0.79600
H1857       H  0.72643307  0.87698010  0.98973244     0.42600
H1858       H  0.79350115  0.87679525  0.51354206     0.41600
H1859       H  0.88175310  0.78129637  0.98007771     0.41200
H1860       H  0.88267956  0.71225951  0.51383356     0.39200
H1861       H  0.78680821  0.62552854  0.50702538     0.42300
H1862       H  0.71912228  0.62463715  0.97179046     0.37100
H1863       H  0.63131459  0.71642592  0.97516594     0.43200
H1864       H  0.63158264  0.78325475  0.51407263     0.39600
H1865       H  0.88316557  0.67376925  0.99753896     0.44500
H1866       H  0.68075725  0.62347294  0.48930756     0.43300
H1867       H  0.62864949  0.82326128  0.50104079     0.43400
H1868       H  0.83263447  0.87780315  0.99822654     0.43800
O1869       O  0.68818783  0.94074333  0.67114881    -0.75100
O1870       O  0.71870495  0.89934760  0.70480979    -0.54000
C1871       C  0.69604857  0.90827458  0.68041233     0.78600
O1872       O  0.82977302  0.56245151  0.67274290    -0.59700
O1873       O  0.79737484  0.60390691  0.70457689    -0.52700
C1874       C  0.82104201  0.59496595  0.68112097     0.70600
O1875       O  0.82845462  0.94044756  0.67174263    -0.74300
O1876       O  0.79670583  0.89908097  0.70433674    -0.54800
C1877       C  0.81990221  0.90795920  0.68037887     0.76600
O1878       O  0.68590693  0.56232383  0.67308114    -0.59400
O1879       O  0.71876050  0.60381059  0.70435215    -0.52500
C1880       C  0.69475313  0.59482229  0.68128056     0.73200
Zr1881     Zr  0.70446918  0.50158898  0.69032607     2.54700
O1882       O  0.70644711  0.50233685  0.62511140    -0.80000
O1883       O  0.63898390  0.50121782  0.69122594    -0.93400
Zr1884     Zr  0.81162132  0.50147474  0.69016679     2.64700
O1885       O  0.80988730  0.50101115  0.62491029    -0.98300
O1886       O  0.87707254  0.50187162  0.69059676    -0.80400
O1887       O  0.75801186  0.96673272  0.68951341    -0.83800
O1888       O  0.75804690  0.53622766  0.68930238    -2.18500
O1889       O  0.68606177  0.56264590  0.81414590    -0.67200
O1890       O  0.71844046  0.60405716  0.78219939    -0.51700
C1891       C  0.69464903  0.59514226  0.80554921     0.71600
O1892       O  0.82854362  0.94097178  0.81598349    -0.60100
O1893       O  0.79677343  0.89957838  0.78348848    -0.52000
C1894       C  0.81999890  0.90849544  0.80734234     0.73400
O1895       O  0.82981879  0.56265480  0.81439659    -0.71500
O1896       O  0.79709919  0.60394234  0.78271082    -0.50100
C1897       C  0.82091664  0.59511201  0.80601463     0.74800
O1898       O  0.68674531  0.94060304  0.81507601    -0.66800
O1899       O  0.71892189  0.89917729  0.78296892    -0.54000
C1900       C  0.69535117  0.90809340  0.80652680     0.73200
Zr1901     Zr  0.70440484  0.50159012  0.79725047     2.77500
O1902       O  0.70586407  0.50148039  0.86252269    -0.97500
O1903       O  0.63897461  0.50036749  0.79558501    -0.78400
Zr1904     Zr  0.81182868  0.50167827  0.79696791     2.70100
O1905       O  0.81254168  0.50299956  0.86219104    -0.79600
O1906       O  0.87719619  0.50036643  0.79330408    -0.98700
Zr1907     Zr  0.75798051  0.93320133  0.74382890     2.21500
Zr1908     Zr  0.75802376  0.57001237  0.74356756     2.11100
O1909       O  0.75808824  0.53618693  0.79785232    -2.47400
O1910       O  0.75793128  0.96703317  0.79796998    -0.79400
O1911       O  0.70359583  0.53637645  0.74377203    -0.71600
O1912       O  0.81250181  0.96685290  0.74370593    -2.32600
O1913       O  0.70351775  0.96691652  0.74370519    -2.28800
O1914       O  0.81252753  0.53643017  0.74351043    -0.73400
H1915       H  0.75799305  0.55188910  0.66861504     0.78600
H1916       H  0.83318509  0.95110587  0.74375712     0.79700
H1917       H  0.75810632  0.55189942  0.81849667     0.82000
H1918       H  0.68281511  0.95119992  0.74367098     0.79600
H1919       H  0.88371595  0.98279865  0.70832510     0.42600
H1920       H  0.88346595  0.52067611  0.77725003     0.41600
H1921       H  0.78693573  0.99657657  0.86912696     0.41200
H1922       H  0.71960554  0.52335732  0.86907883     0.39200
H1923       H  0.63264893  0.51328160  0.77323095     0.42300
H1924       H  0.63279576  0.97926570  0.70632142     0.37100
H1925       H  0.73002999  0.99527545  0.61854437     0.43200
H1926       H  0.79539574  0.52238300  0.61831111     0.39600
H1927       H  0.68082440  0.50688958  0.86978412     0.44500
H1928       H  0.63200970  0.49382897  0.66668569     0.43300
H1929       H  0.83470483  0.50722968  0.61752537     0.43400
H1930       H  0.88540445  0.50817772  0.81732939     0.43800
O1931       O  0.94705805  0.82279640  0.66983876    -0.75100
O1932       O  0.90574641  0.79171060  0.70308289    -0.54000
C1933       C  0.91461848  0.81453598  0.67875797     0.78600
O1934       O  0.56814066  0.68041329  0.67217665    -0.59700
O1935       O  0.60929172  0.71245496  0.70462323    -0.52700
C1936       C  0.60050814  0.68888443  0.68099918     0.70600
O1937       O  0.94644091  0.68143741  0.67120626    -0.74300
O1938       O  0.90521356  0.71386169  0.70326500    -0.54800
C1939       C  0.91404785  0.69020563  0.67973592     0.76600
O1940       O  0.56857405  0.82393677  0.67216762    -0.59400
O1941       O  0.60948463  0.79153721  0.70459702    -0.52500
C1942       C  0.60089412  0.81516592  0.68094934     0.73200
Zr1943     Zr  0.50763468  0.80625883  0.68962228     2.54700
O1944       O  0.50915363  0.80500269  0.62441658    -0.80000
O1945       O  0.50789575  0.87181961  0.69238884    -0.93400
Zr1946     Zr  0.50731393  0.69873985  0.68922823     2.64700
O1947       O  0.50804536  0.70060169  0.62394223    -0.98300
O1948       O  0.50580682  0.63315612  0.68981240    -0.80400
O1949       O  0.97282630  0.75251144  0.68854618    -0.83800
O1950       O  0.54196992  0.75240158  0.68879546    -2.18500
O1951       O  0.56793553  0.82413808  0.81376983    -0.67200
O1952       O  0.60914916  0.79081111  0.78259629    -0.51700
C1953       C  0.60031980  0.81488952  0.80568355     0.71600
O1954       O  0.94600756  0.68235659  0.81504604    -0.60100
O1955       O  0.90493013  0.71345979  0.78158940    -0.52000
C1956       C  0.91366332  0.69055185  0.80586687     0.73400
O1957       O  0.56767591  0.68058180  0.81424441    -0.71500
O1958       O  0.60906189  0.71245239  0.78185329    -0.50100
C1959       C  0.60012083  0.68898305  0.80551550     0.74800
O1960       O  0.94595582  0.82284420  0.81477993    -0.66800
O1961       O  0.90479619  0.79073280  0.78238884    -0.54000
C1962       C  0.91357425  0.81404026  0.80625591     0.73200
Zr1963     Zr  0.50700623  0.80615413  0.79654876     2.77500
O1964       O  0.50670848  0.80517605  0.86186659    -0.97500
O1965       O  0.50647778  0.87175515  0.79469247    -0.78400
Zr1966     Zr  0.50695983  0.69846728  0.79619645     2.70100
O1967       O  0.50745586  0.69824181  0.86144179    -0.79600
O1968       O  0.50500871  0.63299180  0.79242769    -0.98700
Zr1969     Zr  0.93913257  0.75260758  0.74270446     2.21500
Zr1970     Zr  0.57526709  0.75207316  0.74321856     2.11100
O1971       O  0.54137571  0.75224775  0.79739682    -2.47400
O1972       O  0.97247187  0.75247903  0.79706769    -0.78200
O1973       O  0.54199793  0.80679132  0.74325044    -0.71600
O1974       O  0.97258558  0.69794248  0.74277416    -2.32600
O1975       O  0.97267147  0.80726898  0.74287630    -2.28800
O1976       O  0.54182346  0.69747076  0.74283409    -0.73400
H1977       H  0.55779182  0.75244164  0.66824749     0.78600
H1978       H  0.95686162  0.67722227  0.74276590     0.79700
H1979       H  0.55693882  0.75213510  0.81811578     0.82000
H1980       H  0.95695408  0.82799634  0.74281121     0.79600
H1981       H  0.02364752  0.62604715  0.70823070     0.42600
H1982       H  0.52643961  0.62640509  0.77808907     0.41600
H1983       H  0.99567996  0.72132064  0.86836251     0.41200
H1984       H  0.52839556  0.79125943  0.86858624     0.39200
H1985       H  0.51559451  0.87783035  0.77048616     0.42300
H1986       H  0.98496475  0.87822227  0.70401643     0.37100
H1987       H  0.99370165  0.78411398  0.61779378     0.43200
H1988       H  0.52865256  0.71631257  0.61774314     0.39600
H1989       H  0.51229322  0.83027319  0.86895681     0.44500
H1990       H  0.50566173  0.87959763  0.66709535     0.43300
H1991       H  0.51576582  0.67614148  0.61662834     0.43400
H1992       H  0.51066946  0.62467361  0.81700773     0.43800
C1993       C  0.88458880  0.67143527  0.66169531     0.03300
C1994       C  0.86892937  0.68628475  0.63088425    -0.12800
C1995       C  0.83842874  0.67021975  0.61565511     0.00800
C1996       C  0.82353970  0.63933613  0.63143341    -0.11400
C1997       C  0.83911873  0.62447712  0.66230519     0.03300
C1998       C  0.86964723  0.64055030  0.67737418    -0.10800
H1999       H  0.87967125  0.71095592  0.61954638     0.08900
H2000       H  0.79911508  0.62773024  0.62054348     0.06400
H2001       H  0.88095168  0.62984167  0.70196617     0.06300
C2002       C  0.88501170  0.83289328  0.66041497     0.03300
C2003       C  0.86948258  0.86348647  0.67610913    -0.12800
C2004       C  0.83810149  0.87846621  0.66164237     0.00800
C2005       C  0.82221942  0.86281742  0.63135323    -0.11400
C2006       C  0.83768590  0.83228567  0.61548830     0.03300
C2007       C  0.86909633  0.81732788  0.63005341    -0.10800
H2008       H  0.88096797  0.87473559  0.70037550     0.08900
H2009       H  0.79727086  0.87365676  0.62086888     0.06400
H2010       H  0.88026205  0.79285916  0.61869484     0.06300
C2011       C  0.83842041  0.67096202  0.87055116     0.03300
C2012       C  0.82368332  0.63974602  0.85536702    -0.12800
C2013       C  0.83907422  0.62472231  0.82449252     0.00800
C2014       C  0.86935343  0.64085323  0.80894325    -0.11400
C2015       C  0.88419103  0.67201254  0.82413090     0.03300
C2016       C  0.86862838  0.68713433  0.85486020    -0.10800
H2017       H  0.79945874  0.62805972  0.86665976     0.08900
H2018       H  0.88055896  0.62993711  0.78438105     0.06400
H2019       H  0.87926843  0.71200611  0.86583557     0.06300
C2020       C  0.67737961  0.87885751  0.66217206     0.03300
C2021       C  0.64660009  0.86370838  0.67777057    -0.12800
C2022       C  0.63058331  0.83322388  0.66245011     0.00800
C2023       C  0.64549313  0.81781379  0.63150165    -0.11400
C2024       C  0.67631958  0.83288849  0.61586200     0.03300
C2025       C  0.69220941  0.86344969  0.63121765    -0.10800
H2026       H  0.63586000  0.87488728  0.70242414     0.08900
H2027       H  0.63395386  0.79339789  0.62041909     0.06400
H2028       H  0.71678747  0.87436293  0.61992598     0.06300
C2029       C  0.67530212  0.83252834  0.87097757     0.03300
C2030       C  0.69129984  0.86309115  0.85564428    -0.12800
C2031       C  0.67659961  0.87859185  0.82467307     0.00800
C2032       C  0.64592931  0.86341196  0.80896956    -0.11400
C2033       C  0.62982011  0.83296295  0.82429304     0.03300
C2034       C  0.64453516  0.81752002  0.85527729    -0.10800
H2035       H  0.71585149  0.87395705  0.86699288     0.08900
H2036       H  0.63534162  0.87453525  0.78424219     0.06400
H2037       H  0.63292152  0.79310260  0.86630526     0.06300
C2038       C  0.67504652  0.67018859  0.87061269     0.03300
C2039       C  0.64439855  0.68560175  0.85506168    -0.12800
C2040       C  0.62953692  0.67055219  0.82395232     0.00800
C2041       C  0.64542868  0.64012256  0.80833719    -0.11400
C2042       C  0.67602312  0.62461115  0.82385995     0.03300
C2043       C  0.69080336  0.63966747  0.85499932    -0.10800
H2044       H  0.63300622  0.71002322  0.86630329     0.08900
H2045       H  0.63472904  0.62927207  0.78354236     0.06400
H2046       H  0.71527464  0.62850977  0.86624981     0.06300
C2047       C  0.83810602  0.83210898  0.87110065     0.03300
C2048       C  0.86861483  0.81655640  0.85537056    -0.12800
C2049       C  0.88407957  0.83222242  0.82485528     0.00800
C2050       C  0.86891128  0.86337691  0.81000983    -0.11400
C2051       C  0.83838273  0.87894523  0.82565466     0.03300
C2052       C  0.82303036  0.86333062  0.85624490    -0.10800
H2053       H  0.87953423  0.79169916  0.86609963     0.08900
H2054       H  0.88001456  0.87468193  0.78557135     0.06400
H2055       H  0.79861820  0.87457544  0.86757449     0.06300
C2056       C  0.67617236  0.62417190  0.66281321     0.03300
C2057       C  0.64577123  0.63999064  0.67843542    -0.12800
C2058       C  0.62997439  0.67035981  0.66267172     0.00800
C2059       C  0.64474386  0.68503105  0.63128928    -0.11400
C2060       C  0.67523790  0.66929876  0.61562927     0.03300
C2061       C  0.69082433  0.63878343  0.63137842    -0.10800
H2062       H  0.63513745  0.62940320  0.70339212     0.08900
H2063       H  0.63342102  0.70941607  0.61991871     0.06400
H2064       H  0.71515734  0.62735762  0.62006403     0.06300
loop_ 
_geom_bond_atom_site_label_1 
_geom_bond_atom_site_label_2 
_geom_bond_distance 
_geom_bond_site_symmetry_2 
_ccdc_geom_bond_type 
O1            C3   1.289       .  A
O1         Zr271   2.452       .  S
O2            C3   1.283       .  A
O2          Zr39   2.412       .  S
C3          C232   1.464       .  S
O4            C6   1.288       .  A
O4          Zr16   2.447   1_554  S
O5            C6   1.284       .  A
O5          Zr40   2.414       .  S
C6          C218   1.462       .  S
O7            C9   1.288       .  A
O7         Zr274   2.450       .  S
O8            C9   1.284       .  A
O8          Zr39   2.417       .  S
C9          C223   1.465       .  S
O10          C12   1.288       .  A
O10         Zr13   2.451   1_554  S
O11          C12   1.284       .  A
O11         Zr40   2.414       .  S
C12         C254   1.464       .  S
Zr13        O259   2.452       .  S
Zr13         O14   2.434       .  S
Zr13         O15   2.435       .  S
Zr13         O20   2.374   1_556  S
Zr13         O43   2.375   1_556  S
Zr13        O277   2.376       .  S
Zr13        O303   2.373       .  S
O14         H315   0.990       .  S
O15          H60   0.990       .  S
O15         H314   0.990       .  S
Zr16        O265   2.448       .  S
Zr16         O18   2.434       .  S
Zr16        O275   2.434       .  S
Zr16         O20   2.373   1_556  S
Zr16         O46   2.376   1_556  S
Zr16        O277   2.373       .  S
Zr16        O302   2.373       .  S
O17        Zr274   2.435       .  S
O17         H316   0.990       .  S
O17         H319   0.990       .  S
O18         H309   0.990   1_556  S
O19         Zr39   2.376       .  S
O19        Zr271   2.376       .  S
O19        Zr274   2.374       .  S
O20         Zr40   2.380       .  S
O20          H47   0.966       .  S
O21          C23   1.288       .  A
O21        Zr291   2.451   1_554  S
O22          C23   1.284       .  A
O22         Zr40   2.414       .  S
C23         C189   1.464       .  S
O24          C26   1.288       .  A
O24         Zr36   2.446       .  S
O25          C26   1.284       .  A
O25         Zr39   2.414       .  S
C26         C241   1.462       .  S
O27          C29   1.287       .  A
O27        Zr294   2.445   1_554  S
O28          C29   1.284       .  A
O28         Zr40   2.416       .  S
C29         C200   1.464       .  S
O30          C32   1.288       .  A
O30         Zr33   2.447       .  S
O31          C32   1.284       .  A
O31         Zr39   2.412       .  S
C32         C205   1.462       .  S
Zr33        O279   2.450       .  S
Zr33         O34   2.435       .  S
Zr33         O35   2.434       .  S
Zr33         O42   2.376       .  S
Zr33         O45   2.375       .  S
Zr33        O299   2.371       .  S
Zr33        O301   2.375       .  S
O34          H59   0.990       .  S
O34         H312   0.990       .  S
O35         H313   0.990       .  S
Zr36        O285   2.446       .  S
Zr36         O38   2.434       .  S
Zr36        O295   2.434       .  S
Zr36         O42   2.374       .  S
Zr36         O44   2.372       .  S
Zr36        O299   2.372       .  S
Zr36        O304   2.375       .  S
O37        Zr294   2.434       .  S
O37         H311   0.990       .  S
O38          H62   0.990       .  S
O38         H310   0.990       .  S
Zr39         O42   2.378       .  S
Zr39         O44   2.378       .  S
Zr39         O45   2.383       .  S
Zr40         O41   2.381       .  S
Zr40         O43   2.379       .  S
Zr40         O46   2.377       .  S
O41        Zr291   2.371   1_554  S
O41        Zr294   2.371   1_554  S
O41          H49   0.966       .  S
O43        Zr291   2.375   1_554  S
O44        Zr274   2.373       .  S
O44          H48   0.966       .  S
O45        Zr271   2.373       .  S
O45          H50   0.966       .  S
O46        Zr294   2.375   1_554  S
H51         O276   0.990       .  S
H52         O296   0.990   1_554  S
H53         O295   0.990       .  S
H54         O292   0.990   1_554  S
H55         O293   0.990   1_554  S
H56         O273   0.990       .  S
H57         O272   0.990       .  S
H58         O275   0.990   1_554  S
H61         O275   0.990       .  S
O63          C65   1.287       .  A
O63        Zr591   2.445       .  S
O64          C65   1.284       .  A
O64        Zr101   2.415       .  S
C65         C214   1.462       .  S
O66          C68   1.287       .  A
O66         Zr78   2.446       .  S
O67          C68   1.284       .  A
O67        Zr102   2.413       .  S
C68         C191   1.462       .  S
O69          C71   1.288       .  A
O69        Zr594   2.450       .  S
O70          C71   1.284       .  A
O70        Zr101   2.415       .  S
C71         C198   1.464       .  S
O72          C74   1.287       .  A
O72         Zr75   2.443       .  S
O73          C74   1.284       .  A
O73        Zr102   2.417       .  S
C74         C250   1.462       .  S
Zr75        O579   2.444   1_545  S
Zr75         O76   2.434       .  S
Zr75         O77   2.435       .  S
Zr75         O82   2.371       .  S
Zr75        O105   2.374       .  S
Zr75        O597   2.373   1_545  S
Zr75        O623   2.372   1_545  S
O76         H635   0.990   1_545  S
O77         H122   0.990   1_545  S
O77         H634   0.990   1_545  S
Zr78        O585   2.449   1_545  S
Zr78         O79   2.435       .  S
Zr78         O80   2.434       .  S
Zr78         O82   2.373       .  S
Zr78        O108   2.376       .  S
Zr78        O597   2.373   1_545  S
Zr78        O622   2.374   1_545  S
O79         H120   0.990       .  S
O79         H123   0.990       .  S
O80         H629   0.990   1_545  S
O81        Zr101   2.378       .  S
O81        Zr591   2.373       .  S
O81        Zr594   2.374       .  S
O82        Zr102   2.382       .  S
O82         H109   0.966       .  S
O83          C85   1.288       .  A
O83         Zr95   2.449       .  S
O84          C85   1.284       .  A
O84        Zr102   2.417       .  S
C85         C236   1.464       .  S
O86          C88   1.288       .  A
O86        Zr614   2.448       .  S
O87          C88   1.284       .  A
O87        Zr101   2.416       .  S
C88         C245   1.464       .  S
O89          C91   1.288       .  A
O89         Zr98   2.449       .  S
O90          C91   1.284       .  A
O90        Zr102   2.415       .  S
C91         C207   1.463       .  S
O92          C94   1.288       .  A
O92        Zr611   2.449       .  S
O93          C94   1.284       .  A
O93        Zr101   2.416       .  S
C94         C225   1.465       .  S
Zr95        O608   2.448   1_545  S
Zr95         O96   2.435       .  S
Zr95         O97   2.435       .  S
Zr95        O103   2.374       .  S
Zr95        O105   2.374       .  S
Zr95        O620   2.375   1_545  S
Zr95        O623   2.372   1_545  S
O96         H116   0.990       .  S
O96         H121   0.990       .  S
O97         H117   0.990       .  S
Zr98        O602   2.445   1_545  S
Zr98         O99   2.434       .  S
Zr98        O100   2.435       .  S
Zr98        O103   2.374       .  S
Zr98        O108   2.374       .  S
Zr98        O620   2.376   1_545  S
Zr98        O622   2.373   1_545  S
O99         H631   0.990   1_545  S
O100        H114   0.990       .  S
O100        H124   0.990       .  S
Zr101       O104   2.377       .  S
Zr101       O106   2.383       .  S
Zr101       O107   2.381       .  S
Zr102       O103   2.382       .  S
Zr102       O105   2.377       .  S
Zr102       O108   2.379       .  S
O103        H111   0.966       .  S
O104       Zr611   2.375       .  S
O104       Zr614   2.377       .  S
O106       Zr594   2.374       .  S
O106       Zr614   2.372       .  S
O106        H110   0.966       .  S
O107       Zr591   2.373       .  S
O107       Zr611   2.371       .  S
O107        H112   0.966       .  S
H113        O596   0.990       .  S
H115        O615   0.990       .  S
H118        O593   0.990       .  S
H119        O592   0.990       .  S
O125        C127   1.288       .  A
O125      Zr1169   2.450       .  S
O126        C127   1.284       .  A
O126       Zr163   2.413       .  S
C127        C196   1.464       .  S
O128        C130   1.287       .  A
O128       Zr140   2.445       .  S
O129        C130   1.284       .  A
O129       Zr164   2.416       .  S
C130        C252   1.462       .  S
O131        C133   1.288       .  A
O131      Zr1172   2.447       .  S
O132        C133   1.283       .  A
O132       Zr163   2.413       .  S
C133        C187   1.462       .  S
O134        C136   1.288       .  A
O134       Zr137   2.448       .  S
O135        C136   1.284       .  A
O135       Zr164   2.416       .  S
C136        C216   1.464       .  S
Zr137      O1157   2.450   1_455  S
Zr137       O138   2.433       .  S
Zr137       O139   2.436       .  S
Zr137       O144   2.373       .  S
Zr137       O167   2.375       .  S
Zr137      O1175   2.375   1_455  S
Zr137      O1201   2.375   1_455  S
O138       H1213   0.990   1_455  S
O139        H184   0.990       .  S
O139       H1212   0.990   1_455  S
Zr140      O1163   2.446   1_455  S
Zr140       O141   2.436       .  S
Zr140       O142   2.434       .  S
Zr140       O144   2.373       .  S
Zr140       O170   2.377       .  S
Zr140      O1175   2.374   1_455  S
Zr140      O1200   2.373   1_455  S
O141        H182   0.990       .  S
O141        H185   0.990       .  S
O142       H1207   0.990       .  S
O143       Zr163   2.377       .  S
O143      Zr1169   2.376       .  S
O143      Zr1172   2.374       .  S
O144       Zr164   2.379       .  S
O144        H171   0.966       .  S
O145        C147   1.288       .  A
O145       Zr157   2.449       .  S
O146        C147   1.284       .  A
O146       Zr164   2.413       .  S
C147        C227   1.463       .  S
O148        C150   1.288       .  A
O148      Zr1192   2.446       .  S
O149        C150   1.284       .  A
O149       Zr163   2.415       .  S
C150        C209   1.463       .  S
O151        C153   1.288       .  A
O151       Zr160   2.447       .  S
O152        C153   1.284       .  A
O152       Zr164   2.413       .  S
C153        C234   1.462       .  S
O154        C156   1.288       .  A
O154      Zr1189   2.449       .  S
O155        C156   1.284       .  A
O155       Zr163   2.412       .  S
C156        C243   1.463       .  S
Zr157      O1186   2.449   1_455  S
Zr157       O158   2.436       .  S
Zr157       O159   2.435       .  S
Zr157       O165   2.374       .  S
Zr157       O167   2.375       .  S
Zr157      O1198   2.373   1_455  S
Zr157      O1201   2.373   1_455  S
O158        H178   0.990       .  S
O158        H183   0.990       .  S
O159        H179   0.990       .  S
Zr160      O1180   2.446   1_455  S
Zr160       O161   2.434       .  S
Zr160       O162   2.435       .  S
Zr160       O165   2.371       .  S
Zr160       O170   2.375       .  S
Zr160      O1198   2.373   1_455  S
Zr160      O1200   2.372   1_455  S
O161       H1209   0.990   1_455  S
O162        H176   0.990       .  S
O162        H186   0.990       .  S
Zr163       O166   2.375       .  S
Zr163       O168   2.380       .  S
Zr163       O169   2.381       .  S
Zr164       O165   2.380       .  S
Zr164       O167   2.378       .  S
Zr164       O170   2.377       .  S
O165        H173   0.966       .  S
O166      Zr1189   2.373       .  S
O166      Zr1192   2.373       .  S
O168      Zr1172   2.373       .  S
O168      Zr1192   2.372       .  S
O168        H172   0.966       .  S
O169      Zr1169   2.375       .  S
O169      Zr1189   2.373       .  S
O169        H174   0.966       .  S
H175       O1174   0.990       .  S
H177       O1193   0.990       .  S
H180       O1171   0.990       .  S
H181       O1170   0.990       .  S
C187        C188   1.402       .  A
C187        C192   1.401       .  A
C188        C189   1.402       .  A
C188        H193   1.084       .  S
C189        C190   1.401       .  A
C190        C191   1.401       .  A
C190        H194   1.085       .  S
C191        C192   1.400       .  A
C192        H195   1.085       .  S
C196        C197   1.402       .  A
C196        C201   1.402       .  A
C197        C198   1.401       .  A
C197        H202   1.085       .  S
C198        C199   1.401       .  A
C199        C200   1.402       .  A
C199        H203   1.084       .  S
C200        C201   1.402       .  A
C201        H204   1.085       .  S
C205        C206   1.401       .  A
C205        C210   1.402       .  A
C206        C207   1.401       .  A
C206        H211   1.085       .  S
C207        C208   1.401       .  A
C208        C209   1.401       .  A
C208        H212   1.085       .  S
C209        C210   1.401       .  A
C210        H213   1.085       .  S
C214        C215   1.401       .  A
C214        C219   1.401       .  A
C215        C216   1.401       .  A
C215        H220   1.085       .  S
C216        C217   1.402       .  A
C217        C218   1.402       .  A
C217        H221   1.085       .  S
C218        C219   1.401       .  A
C219        H222   1.085       .  S
C223        C224   1.403       .  A
C223        C228   1.402       .  A
C224        C225   1.402       .  A
C224        H229   1.084       .  S
C225        C226   1.401       .  A
C226        C227   1.401       .  A
C226        H230   1.085       .  S
C227        C228   1.402       .  A
C228        H231   1.085       .  S
C232        C233   1.401       .  A
C232        C237   1.402       .  A
C233        C234   1.402       .  A
C233        H238   1.085       .  S
C234        C235   1.401       .  A
C235        C236   1.401       .  A
C235        H239   1.085       .  S
C236        C237   1.402       .  A
C237        H240   1.085       .  S
C241        C242   1.401       .  A
C241        C246   1.402       .  A
C242        C243   1.401       .  A
C242        H247   1.085       .  S
C243        C244   1.401       .  A
C244        C245   1.401       .  A
C244        H248   1.085       .  S
C245        C246   1.401       .  A
C246        H249   1.085       .  S
C250        C251   1.401       .  A
C250        C255   1.401       .  A
C251        C252   1.401       .  A
C251        H256   1.085       .  S
C252        C253   1.402       .  A
C253        C254   1.402       .  A
C253        H257   1.085       .  S
C254        C255   1.401       .  A
C255        H258   1.085       .  S
O259        C261   1.289       .  A
O260        C261   1.283       .  A
O260       Zr297   2.412       .  S
C261        C490   1.464       .  S
O262        C264   1.288       .  A
O262       Zr274   2.448       .  S
O263        C264   1.284       .  A
O263       Zr298   2.414       .  S
C264        C476   1.463       .  S
O265        C267   1.288       .  A
O266        C267   1.284       .  A
O266       Zr297   2.417       .  S
C267        C481   1.465       .  S
O268        C270   1.288       .  A
O268       Zr271   2.450       .  S
O269        C270   1.284       .  A
O269       Zr298   2.414       .  S
C270        C512   1.464       .  S
Zr271       O272   2.433       .  S
Zr271       O273   2.435       .  S
Zr271       O278   2.374       .  S
Zr271       O301   2.376       .  S
O273        H318   0.990       .  S
Zr274       O276   2.434       .  S
Zr274       O278   2.373       .  S
Zr274       O304   2.376       .  S
O277       Zr297   2.376       .  S
O278       Zr298   2.380       .  S
O278        H305   0.966       .  S
O279        C281   1.288       .  A
O280        C281   1.284       .  A
O280       Zr298   2.414       .  S
C281        C447   1.464       .  S
O282        C284   1.287       .  A
O282       Zr294   2.446       .  S
O283        C284   1.284       .  A
O283       Zr297   2.414       .  S
C284        C499   1.462       .  S
O285        C287   1.288       .  A
O286        C287   1.284       .  A
O286       Zr298   2.416       .  S
C287        C458   1.464       .  S
O288        C290   1.288       .  A
O288       Zr291   2.448       .  S
O289        C290   1.284       .  A
O289       Zr297   2.412       .  S
C290        C463   1.462       .  S
Zr291       O292   2.435       .  S
Zr291       O293   2.434       .  S
Zr291       O300   2.376       .  S
Zr291       O303   2.375       .  S
O292        H317   0.990       .  S
Zr294       O296   2.434       .  S
Zr294       O300   2.374       .  S
Zr294       O302   2.372       .  S
O296        H320   0.990       .  S
Zr297       O300   2.378       .  S
Zr297       O302   2.378       .  S
Zr297       O303   2.383       .  S
Zr298       O299   2.381       .  S
Zr298       O301   2.379       .  S
Zr298       O304   2.376       .  S
O299        H307   0.966       .  S
O302        H306   0.966       .  S
O303        H308   0.966       .  S
O321        C323   1.287       .  A
O321       Zr849   2.445       .  S
O322        C323   1.284       .  A
O322       Zr359   2.415       .  S
C323        C472   1.462       .  S
O324        C326   1.287       .  A
O324       Zr336   2.446       .  S
O325        C326   1.284       .  A
O325       Zr360   2.413       .  S
C326        C449   1.461       .  S
O327        C329   1.288       .  A
O327       Zr852   2.450       .  S
O328        C329   1.284       .  A
O328       Zr359   2.416       .  S
C329        C456   1.465       .  S
O330        C332   1.287       .  A
O330       Zr333   2.443       .  S
O331        C332   1.284       .  A
O331       Zr360   2.417       .  S
C332        C508   1.462       .  S
Zr333       O837   2.444   1_545  S
Zr333       O334   2.434       .  S
Zr333       O335   2.435       .  S
Zr333       O855   2.373   1_545  S
Zr333       O340   2.371       .  S
Zr333       O363   2.374       .  S
Zr333       O881   2.372   1_545  S
O334        H893   0.990   1_545  S
O335        H892   0.990   1_545  S
O335        H380   0.990   1_545  S
Zr336       O843   2.448   1_545  S
Zr336       O337   2.435       .  S
Zr336       O338   2.434       .  S
Zr336       O340   2.373       .  S
Zr336       O855   2.373   1_545  S
Zr336       O880   2.374   1_545  S
Zr336       O366   2.376       .  S
O337        H378   0.990       .  S
O337        H381   0.990       .  S
O338        H887   0.990   1_545  S
O339       Zr849   2.372       .  S
O339       Zr852   2.373       .  S
O339       Zr359   2.377       .  S
O340       Zr360   2.382       .  S
O340        H367   0.966       .  S
O341        C343   1.288       .  A
O341       Zr353   2.449       .  S
O342        C343   1.284       .  A
O342       Zr360   2.416       .  S
C343        C494   1.464       .  S
O344        C346   1.288       .  A
O344       Zr872   2.447       .  S
O345        C346   1.284       .  A
O345       Zr359   2.416       .  S
C346        C503   1.464       .  S
O347        C349   1.288       .  A
O347       Zr356   2.449       .  S
O348        C349   1.284       .  A
O348       Zr360   2.415       .  S
C349        C465   1.463       .  S
O350        C352   1.288       .  A
O350       Zr869   2.449       .  S
O351        C352   1.284       .  A
O351       Zr359   2.416       .  S
C352        C483   1.464       .  S
Zr353       O866   2.449   1_545  S
Zr353       O354   2.435       .  S
Zr353       O355   2.435       .  S
Zr353       O361   2.374       .  S
Zr353       O878   2.375   1_545  S
Zr353       O881   2.372   1_545  S
Zr353       O363   2.375       .  S
O354        H374   0.990       .  S
O354        H379   0.990       .  S
O355        H375   0.990       .  S
Zr356       O860   2.446   1_545  S
Zr356       O357   2.434       .  S
Zr356       O358   2.435       .  S
Zr356       O878   2.376   1_545  S
Zr356       O361   2.374       .  S
Zr356       O366   2.374       .  S
Zr356       O880   2.372   1_545  S
O357        H889   0.990   1_545  S
O358        H372   0.990       .  S
O358        H382   0.990       .  S
Zr359       O362   2.377       .  S
Zr359       O364   2.382       .  S
Zr359       O365   2.381       .  S
Zr360       O361   2.382       .  S
Zr360       O363   2.377       .  S
Zr360       O366   2.379       .  S
O361        H369   0.966       .  S
O362       Zr869   2.375       .  S
O362       Zr872   2.376       .  S
O364       Zr852   2.375       .  S
O364       Zr872   2.372       .  S
O364        H368   0.966       .  S
O365       Zr849   2.373       .  S
O365       Zr869   2.372       .  S
O365        H370   0.966       .  S
H371        O854   0.990       .  S
H373        O873   0.990       .  S
H376        O851   0.990       .  S
H377        O850   0.990       .  S
O383        C385   1.288       .  A
O383      Zr1427   2.450       .  S
O384        C385   1.284       .  A
O384       Zr421   2.413       .  S
C385        C454   1.464       .  S
O386        C388   1.287       .  A
O386       Zr398   2.445       .  S
O387        C388   1.284       .  A
O387       Zr422   2.416       .  S
C388        C510   1.462       .  S
O389        C391   1.287       .  A
O389      Zr1430   2.446       .  S
O390        C391   1.284       .  A
O390       Zr421   2.413       .  S
C391        C445   1.462       .  S
O392        C394   1.288       .  A
O392       Zr395   2.449       .  S
O393        C394   1.284       .  A
O393       Zr422   2.416       .  S
C394        C474   1.465       .  S
Zr395      O1415   2.450   1_455  S
Zr395       O396   2.433       .  S
Zr395       O397   2.436       .  S
Zr395      O1433   2.375   1_455  S
Zr395       O402   2.373       .  S
Zr395       O425   2.375       .  S
Zr395      O1459   2.375   1_455  S
O396       H1471   0.990   1_455  S
O397       H1470   0.990   1_455  S
O397        H442   0.990       .  S
Zr398      O1421   2.446   1_455  S
Zr398       O399   2.436       .  S
Zr398       O400   2.435       .  S
Zr398       O402   2.373       .  S
Zr398      O1433   2.374   1_455  S
Zr398      O1458   2.373   1_455  S
Zr398       O428   2.377       .  S
O399        H440   0.990       .  S
O399        H443   0.990       .  S
O400       H1465   0.990       .  S
O401      Zr1427   2.376       .  S
O401      Zr1430   2.374       .  S
O401       Zr421   2.377       .  S
O402       Zr422   2.379       .  S
O402        H429   0.966       .  S
O403        C405   1.288       .  A
O403       Zr415   2.448       .  S
O404        C405   1.284       .  A
O404       Zr422   2.413       .  S
C405        C485   1.463       .  S
O406        C408   1.288       .  A
O406      Zr1450   2.446       .  S
O407        C408   1.284       .  A
O407       Zr421   2.415       .  S
C408        C467   1.463       .  S
O409        C411   1.288       .  A
O409       Zr418   2.447       .  S
O410        C411   1.284       .  A
O410       Zr422   2.413       .  S
C411        C492   1.462       .  S
O412        C414   1.288       .  A
O412      Zr1447   2.449       .  S
O413        C414   1.284       .  A
O413       Zr421   2.413       .  S
C414        C501   1.463       .  S
Zr415      O1444   2.449   1_455  S
Zr415       O416   2.436       .  S
Zr415       O417   2.435       .  S
Zr415       O423   2.374       .  S
Zr415      O1456   2.373   1_455  S
Zr415      O1459   2.373   1_455  S
Zr415       O425   2.375       .  S
O416        H436   0.990       .  S
O416        H441   0.990       .  S
O417        H437   0.990       .  S
Zr418      O1438   2.445   1_455  S
Zr418       O419   2.434       .  S
Zr418       O420   2.435       .  S
Zr418      O1456   2.373   1_455  S
Zr418       O423   2.371       .  S
Zr418       O428   2.375       .  S
Zr418      O1458   2.372   1_455  S
O419       H1467   0.990   1_455  S
O420        H434   0.990       .  S
O420        H444   0.990       .  S
Zr421       O424   2.375       .  S
Zr421       O426   2.380       .  S
Zr421       O427   2.381       .  S
Zr422       O423   2.380       .  S
Zr422       O425   2.378       .  S
Zr422       O428   2.378       .  S
O423        H431   0.966       .  S
O424      Zr1447   2.373       .  S
O424      Zr1450   2.373       .  S
O426      Zr1430   2.373       .  S
O426      Zr1450   2.372       .  S
O426        H430   0.966       .  S
O427      Zr1427   2.375       .  S
O427      Zr1447   2.373       .  S
O427        H432   0.966       .  S
H433       O1432   0.990       .  S
H435       O1451   0.990       .  S
H438       O1429   0.990       .  S
H439       O1428   0.990       .  S
C445        C446   1.402       .  A
C445        C450   1.401       .  A
C446        C447   1.402       .  A
C446        H451   1.084       .  S
C447        C448   1.401       .  A
C448        C449   1.401       .  A
C448        H452   1.085       .  S
C449        C450   1.400       .  A
C450        H453   1.085       .  S
C454        C455   1.402       .  A
C454        C459   1.402       .  A
C455        C456   1.401       .  A
C455        H460   1.085       .  S
C456        C457   1.402       .  A
C457        C458   1.402       .  A
C457        H461   1.084       .  S
C458        C459   1.402       .  A
C459        H462   1.085       .  S
C463        C464   1.401       .  A
C463        C468   1.402       .  A
C464        C465   1.401       .  A
C464        H469   1.085       .  S
C465        C466   1.401       .  A
C466        C467   1.401       .  A
C466        H470   1.085       .  S
C467        C468   1.402       .  A
C468        H471   1.085       .  S
C472        C473   1.401       .  A
C472        C477   1.401       .  A
C473        C474   1.401       .  A
C473        H478   1.085       .  S
C474        C475   1.402       .  A
C475        C476   1.402       .  A
C475        H479   1.085       .  S
C476        C477   1.401       .  A
C477        H480   1.085       .  S
C481        C482   1.403       .  A
C481        C486   1.402       .  A
C482        C483   1.402       .  A
C482        H487   1.084       .  S
C483        C484   1.401       .  A
C484        C485   1.401       .  A
C484        H488   1.085       .  S
C485        C486   1.402       .  A
C486        H489   1.085       .  S
C490        C491   1.401       .  A
C490        C495   1.402       .  A
C491        C492   1.402       .  A
C491        H496   1.085       .  S
C492        C493   1.401       .  A
C493        C494   1.401       .  A
C493        H497   1.085       .  S
C494        C495   1.402       .  A
C495        H498   1.085       .  S
C499        C500   1.401       .  A
C499        C504   1.402       .  A
C500        C501   1.401       .  A
C500        H505   1.085       .  S
C501        C502   1.401       .  A
C502        C503   1.402       .  A
C502        H506   1.085       .  S
C503        C504   1.401       .  A
C504        H507   1.085       .  S
C508        C509   1.401       .  A
C508        C513   1.401       .  A
C509        C510   1.401       .  A
C509        H514   1.085       .  S
C510        C511   1.402       .  A
C511        C512   1.402       .  A
C511        H515   1.085       .  S
C512        C513   1.401       .  A
C513        H516   1.085       .  S
O517        C519   1.288       .  A
O517       Zr787   2.450       .  S
O518        C519   1.284       .  A
O518       Zr555   2.414       .  S
C519        C748   1.464       .  S
O520        C522   1.288       .  A
O520       Zr532   2.450   1_554  S
O521        C522   1.284       .  A
O521       Zr556   2.414       .  S
C522        C734   1.464       .  S
O523        C525   1.288       .  A
O523       Zr790   2.449       .  S
O524        C525   1.284       .  A
O524       Zr555   2.415       .  S
C525        C739   1.464       .  S
O526        C528   1.288       .  A
O526       Zr529   2.448   1_554  S
O527        C528   1.285       .  A
O527       Zr556   2.418       .  S
C528        C770   1.465       .  S
Zr529       O775   2.449       .  S
Zr529       O530   2.433       .  S
Zr529       O531   2.435       .  S
Zr529       O793   2.375       .  S
Zr529       O536   2.373   1_556  S
Zr529       O559   2.376   1_556  S
Zr529       O819   2.374       .  S
O530        H831   0.990       .  S
O531        H830   0.990       .  S
O531        H576   0.990       .  S
Zr532       O781   2.449       .  S
Zr532       O791   2.434       .  S
Zr532       O534   2.435       .  S
Zr532       O536   2.372   1_556  S
Zr532       O793   2.373       .  S
Zr532       O818   2.373       .  S
Zr532       O562   2.377   1_556  S
O533       Zr790   2.435       .  S
O533        H832   0.990       .  S
O533        H835   0.990       .  S
O534        H825   0.990   1_556  S
O535       Zr787   2.375       .  S
O535       Zr790   2.373       .  S
O535       Zr555   2.376       .  S
O536       Zr556   2.379       .  S
O536        H563   0.966       .  S
O537        C539   1.288       .  A
O537       Zr807   2.450   1_554  S
O538        C539   1.284       .  A
O538       Zr556   2.415       .  S
C539        C705   1.464       .  S
O540        C542   1.287       .  A
O540       Zr552   2.444       .  S
O541        C542   1.284       .  A
O541       Zr555   2.415       .  S
C542        C757   1.461       .  S
O543        C545   1.288       .  A
O543       Zr810   2.446   1_554  S
O544        C545   1.285       .  A
O544       Zr556   2.417       .  S
C545        C716   1.465       .  S
O546        C548   1.288       .  A
O546       Zr549   2.446       .  S
O547        C548   1.284       .  A
O547       Zr555   2.413       .  S
C548        C721   1.462       .  S
Zr549       O795   2.450       .  S
Zr549       O550   2.435       .  S
Zr549       O551   2.433       .  S
Zr549       O815   2.371       .  S
Zr549       O558   2.375       .  S
Zr549       O561   2.374       .  S
Zr549       O817   2.375       .  S
O550        H828   0.990       .  S
O550        H575   0.990       .  S
O551        H829   0.990       .  S
Zr552       O801   2.447       .  S
Zr552       O811   2.434       .  S
Zr552       O554   2.434       .  S
Zr552       O558   2.374       .  S
Zr552       O815   2.370       .  S
Zr552       O820   2.375       .  S
Zr552       O560   2.373       .  S
O553       Zr810   2.434       .  S
O553        H827   0.990       .  S
O554        H826   0.990       .  S
O554        H578   0.990       .  S
Zr555       O558   2.377       .  S
Zr555       O560   2.379       .  S
Zr555       O561   2.382       .  S
Zr556       O557   2.381       .  S
Zr556       O559   2.378       .  S
Zr556       O562   2.378       .  S
O557       Zr807   2.372   1_554  S
O557       Zr810   2.372   1_554  S
O557        H565   0.966       .  S
O559       Zr807   2.375   1_554  S
O560       Zr790   2.374       .  S
O560        H564   0.966       .  S
O561       Zr787   2.373       .  S
O561        H566   0.966       .  S
O562       Zr810   2.374   1_554  S
H567        O792   0.990       .  S
H568        O812   0.990   1_554  S
H569        O811   0.990       .  S
H570        O808   0.990   1_554  S
H571        O809   0.990   1_554  S
H572        O789   0.990       .  S
H573        O788   0.990       .  S
H574        O791   0.990   1_554  S
H577        O791   0.990   1_554  S
O579        C581   1.287       .  A
O580        C581   1.284       .  A
O580       Zr617   2.416       .  S
C581        C730   1.462       .  S
O582        C584   1.288       .  A
O582       Zr594   2.448       .  S
O583        C584   1.284       .  A
O583       Zr618   2.415       .  S
C584        C707   1.463       .  S
O585        C587   1.288       .  A
O586        C587   1.284       .  A
O586       Zr617   2.417       .  S
C587        C714   1.464       .  S
O588        C590   1.287       .  A
O588       Zr591   2.443       .  S
O589        C590   1.284       .  A
O589       Zr618   2.418       .  S
C590        C766   1.462       .  S
Zr591       O592   2.434       .  S
Zr591       O593   2.436       .  S
Zr591       O598   2.372       .  S
Zr591       O621   2.375       .  S
O593        H638   0.990       .  S
Zr594       O595   2.435       .  S
Zr594       O596   2.435       .  S
Zr594       O598   2.374       .  S
Zr594       O624   2.375       .  S
O595        H636   0.990       .  S
O595        H639   0.990       .  S
O597       Zr617   2.377       .  S
O598       Zr618   2.381       .  S
O598        H625   0.966       .  S
O599        C601   1.288       .  A
O599       Zr611   2.449       .  S
O600        C601   1.284       .  A
O600       Zr618   2.416       .  S
C601        C752   1.464       .  S
O602        C604   1.287       .  A
O603        C604   1.284       .  A
O603       Zr617   2.414       .  S
C604        C761   1.462       .  S
O605        C607   1.288       .  A
O605       Zr614   2.447       .  S
O606        C607   1.284       .  A
O606       Zr618   2.415       .  S
C607        C723   1.463       .  S
O608        C610   1.288       .  A
O609        C610   1.284       .  A
O609       Zr617   2.416       .  S
C610        C741   1.464       .  S
Zr611       O612   2.435       .  S
Zr611       O613   2.435       .  S
Zr611       O619   2.373       .  S
Zr611       O621   2.376       .  S
O612        H632   0.990       .  S
O612        H637   0.990       .  S
O613        H633   0.990       .  S
Zr614       O615   2.433       .  S
Zr614       O616   2.435       .  S
Zr614       O619   2.374       .  S
Zr614       O624   2.375       .  S
O616        H630   0.990       .  S
O616        H640   0.990       .  S
Zr617       O620   2.378       .  S
Zr617       O622   2.382       .  S
Zr617       O623   2.380       .  S
Zr618       O619   2.382       .  S
Zr618       O621   2.378       .  S
Zr618       O624   2.380       .  S
O619        H627   0.966       .  S
O622        H626   0.966       .  S
O623        H628   0.966       .  S
O641        C643   1.288       .  A
O641      Zr1685   2.448       .  S
O642        C643   1.284       .  A
O642       Zr679   2.415       .  S
C643        C712   1.464       .  S
O644        C646   1.287       .  A
O644       Zr656   2.445       .  S
O645        C646   1.284       .  A
O645       Zr680   2.416       .  S
C646        C768   1.463       .  S
O647        C649   1.288       .  A
O647      Zr1688   2.446       .  S
O648        C649   1.284       .  A
O648       Zr679   2.413       .  S
C649        C703   1.463       .  S
O650        C652   1.288       .  A
O650       Zr653   2.448       .  S
O651        C652   1.284       .  A
O651       Zr680   2.415       .  S
C652        C732   1.464       .  S
Zr653      O1673   2.449   1_455  S
Zr653       O654   2.433       .  S
Zr653       O655   2.435       .  S
Zr653      O1691   2.375   1_455  S
Zr653       O660   2.372       .  S
Zr653       O683   2.375       .  S
Zr653      O1717   2.375   1_455  S
O654       H1729   0.990   1_455  S
O655       H1728   0.990   1_455  S
O655        H700   0.990       .  S
Zr656      O1679   2.446   1_455  S
Zr656       O657   2.436       .  S
Zr656       O658   2.435       .  S
Zr656       O660   2.372       .  S
Zr656      O1691   2.374   1_455  S
Zr656      O1716   2.372   1_455  S
Zr656       O686   2.377       .  S
O657        H698   0.990       .  S
O657        H701   0.990       .  S
O658       H1723   0.990       .  S
O659      Zr1685   2.374       .  S
O659      Zr1688   2.374       .  S
O659       Zr679   2.376       .  S
O660       Zr680   2.378       .  S
O660        H687   0.966       .  S
O661        C663   1.288       .  A
O661       Zr673   2.448       .  S
O662        C663   1.284       .  A
O662       Zr680   2.412       .  S
C663        C743   1.462       .  S
O664        C666   1.288       .  A
O664      Zr1708   2.446       .  S
O665        C666   1.284       .  A
O665       Zr679   2.415       .  S
C666        C725   1.463       .  S
O667        C669   1.288       .  A
O667       Zr676   2.449       .  S
O668        C669   1.283       .  A
O668       Zr680   2.412       .  S
C669        C750   1.463       .  S
O670        C672   1.288       .  A
O670      Zr1705   2.448       .  S
O671        C672   1.284       .  A
O671       Zr679   2.412       .  S
C672        C759   1.462       .  S
Zr673      O1702   2.448   1_455  S
Zr673       O674   2.436       .  S
Zr673       O675   2.435       .  S
Zr673       O681   2.374       .  S
Zr673      O1714   2.374   1_455  S
Zr673      O1717   2.374   1_455  S
Zr673       O683   2.375       .  S
O674        H694   0.990       .  S
O674        H699   0.990       .  S
O675        H695   0.990       .  S
Zr676      O1696   2.445   1_455  S
Zr676       O677   2.433       .  S
Zr676       O678   2.435       .  S
Zr676      O1714   2.375   1_455  S
Zr676       O681   2.371       .  S
Zr676       O686   2.374       .  S
Zr676      O1716   2.371   1_455  S
O677       H1725   0.990   1_455  S
O678        H692   0.990       .  S
O678        H702   0.990       .  S
Zr679       O682   2.377       .  S
Zr679       O684   2.380       .  S
Zr679       O685   2.381       .  S
Zr680       O681   2.380       .  S
Zr680       O683   2.378       .  S
Zr680       O686   2.378       .  S
O681        H689   0.966       .  S
O682      Zr1705   2.374       .  S
O682      Zr1708   2.375       .  S
O684      Zr1688   2.372       .  S
O684      Zr1708   2.371       .  S
O684        H688   0.966       .  S
O685      Zr1685   2.375       .  S
O685      Zr1705   2.373       .  S
O685        H690   0.966       .  S
H691       O1690   0.990       .  S
H693       O1709   0.990       .  S
H696       O1687   0.990       .  S
H697       O1686   0.990       .  S
C703        C704   1.402       .  A
C703        C708   1.401       .  A
C704        C705   1.402       .  A
C704        H709   1.085       .  S
C705        C706   1.402       .  A
C706        C707   1.402       .  A
C706        H710   1.085       .  S
C707        C708   1.400       .  A
C708        H711   1.085       .  S
C712        C713   1.401       .  A
C712        C717   1.402       .  A
C713        C714   1.401       .  A
C713        H718   1.085       .  S
C714        C715   1.402       .  A
C715        C716   1.402       .  A
C715        H719   1.084       .  S
C716        C717   1.403       .  A
C717        H720   1.084       .  S
C721        C722   1.401       .  A
C721        C726   1.401       .  A
C722        C723   1.401       .  A
C722        H727   1.085       .  S
C723        C724   1.401       .  A
C724        C725   1.401       .  A
C724        H728   1.085       .  S
C725        C726   1.401       .  A
C726        H729   1.085       .  S
C730        C731   1.401       .  A
C730        C735   1.401       .  A
C731        C732   1.401       .  A
C731        H736   1.085       .  S
C732        C733   1.402       .  A
C733        C734   1.402       .  A
C733        H737   1.085       .  S
C734        C735   1.401       .  A
C735        H738   1.085       .  S
C739        C740   1.402       .  A
C739        C744   1.401       .  A
C740        C741   1.402       .  A
C740        H745   1.084       .  S
C741        C742   1.401       .  A
C742        C743   1.401       .  A
C742        H746   1.085       .  S
C743        C744   1.401       .  A
C744        H747   1.085       .  S
C748        C749   1.401       .  A
C748        C753   1.402       .  A
C749        C750   1.402       .  A
C749        H754   1.085       .  S
C750        C751   1.401       .  A
C751        C752   1.401       .  A
C751        H755   1.085       .  S
C752        C753   1.402       .  A
C753        H756   1.085       .  S
C757        C758   1.401       .  A
C757        C762   1.401       .  A
C758        C759   1.401       .  A
C758        H763   1.085       .  S
C759        C760   1.401       .  A
C760        C761   1.401       .  A
C760        H764   1.085       .  S
C761        C762   1.401       .  A
C762        H765   1.085       .  S
C766        C767   1.400       .  A
C766        C771   1.401       .  A
C767        C768   1.400       .  A
C767        H772   1.085       .  S
C768        C769   1.403       .  A
C769        C770   1.403       .  A
C769        H773   1.085       .  S
C770        C771   1.401       .  A
C771        H774   1.085       .  S
O775        C777   1.288       .  A
O776        C777   1.284       .  A
O776       Zr813   2.413       .  S
C777       C1006   1.463       .  S
O778        C780   1.288       .  A
O778       Zr790   2.448       .  S
O779        C780   1.284       .  A
O779       Zr814   2.415       .  S
C780        C992   1.463       .  S
O781        C783   1.288       .  A
O782        C783   1.284       .  A
O782       Zr813   2.415       .  S
C783        C997   1.464       .  S
O784        C786   1.288       .  A
O784       Zr787   2.449       .  S
O785        C786   1.285       .  A
O785       Zr814   2.418       .  S
C786       C1028   1.465       .  S
Zr787       O788   2.434       .  S
Zr787       O789   2.435       .  S
Zr787       O794   2.373       .  S
Zr787       O817   2.376       .  S
O789        H834   0.990       .  S
Zr790       O792   2.434       .  S
Zr790       O794   2.371       .  S
Zr790       O820   2.377       .  S
O793       Zr813   2.376       .  S
O794       Zr814   2.378       .  S
O794        H821   0.966       .  S
O795        C797   1.288       .  A
O796        C797   1.284       .  A
O796       Zr814   2.415       .  S
C797        C963   1.465       .  S
O798        C800   1.287       .  A
O798       Zr810   2.445       .  S
O799        C800   1.284       .  A
O799       Zr813   2.415       .  S
C800       C1015   1.462       .  S
O801        C803   1.288       .  A
O802        C803   1.285       .  A
O802       Zr814   2.417       .  S
C803        C974   1.465       .  S
O804        C806   1.288       .  A
O804       Zr807   2.446       .  S
O805        C806   1.284       .  A
O805       Zr813   2.413       .  S
C806        C979   1.462       .  S
Zr807       O808   2.435       .  S
Zr807       O809   2.434       .  S
Zr807       O816   2.376       .  S
Zr807       O819   2.374       .  S
O808        H833   0.990       .  S
Zr810       O812   2.434       .  S
Zr810       O816   2.375       .  S
Zr810       O818   2.372       .  S
O812        H836   0.990       .  S
Zr813       O816   2.378       .  S
Zr813       O818   2.379       .  S
Zr813       O819   2.382       .  S
Zr814       O815   2.380       .  S
Zr814       O817   2.378       .  S
Zr814       O820   2.378       .  S
O815        H823   0.966       .  S
O818        H822   0.966       .  S
O819        H824   0.966       .  S
O837        C839   1.287       .  A
O838        C839   1.284       .  A
O838       Zr875   2.415       .  S
C839        C988   1.462       .  S
O840        C842   1.288       .  A
O840       Zr852   2.449       .  S
O841        C842   1.284       .  A
O841       Zr876   2.417       .  S
C842        C965   1.464       .  S
O843        C845   1.288       .  A
O844        C845   1.284       .  A
O844       Zr875   2.416       .  S
C845        C972   1.464       .  S
O846        C848   1.287       .  A
O846       Zr849   2.443       .  S
O847        C848   1.285       .  A
O847       Zr876   2.419       .  S
C848       C1024   1.462       .  S
Zr849       O850   2.433       .  S
Zr849       O851   2.436       .  S
Zr849       O856   2.371       .  S
Zr849       O879   2.375       .  S
O851        H896   0.990       .  S
Zr852       O853   2.435       .  S
Zr852       O854   2.434       .  S
Zr852       O856   2.373       .  S
Zr852       O882   2.375       .  S
O853        H894   0.990       .  S
O853        H897   0.990       .  S
O855       Zr875   2.378       .  S
O856       Zr876   2.380       .  S
O856        H883   0.966       .  S
O857        C859   1.288       .  A
O857       Zr869   2.449       .  S
O858        C859   1.284       .  A
O858       Zr876   2.416       .  S
C859       C1010   1.464       .  S
O860        C862   1.288       .  A
O861        C862   1.284       .  A
O861       Zr875   2.414       .  S
C862       C1019   1.462       .  S
O863        C865   1.288       .  A
O863       Zr872   2.447       .  S
O864        C865   1.284       .  A
O864       Zr876   2.415       .  S
C865        C981   1.462       .  S
O866        C868   1.288       .  A
O867        C868   1.284       .  A
O867       Zr875   2.416       .  S
C868        C999   1.464       .  S
Zr869       O870   2.435       .  S
Zr869       O871   2.435       .  S
Zr869       O877   2.373       .  S
Zr869       O879   2.376       .  S
O870        H890   0.990       .  S
O870        H895   0.990       .  S
O871        H891   0.990       .  S
Zr872       O873   2.433       .  S
Zr872       O874   2.435       .  S
Zr872       O877   2.374       .  S
Zr872       O882   2.375       .  S
O874        H888   0.990       .  S
O874        H898   0.990       .  S
Zr875       O878   2.377       .  S
Zr875       O880   2.382       .  S
Zr875       O881   2.380       .  S
Zr876       O877   2.382       .  S
Zr876       O879   2.379       .  S
Zr876       O882   2.379       .  S
O877        H885   0.966       .  S
O880        H884   0.966       .  S
O881        H886   0.966       .  S
O899        C901   1.288       .  A
O899      Zr1943   2.448       .  S
O900        C901   1.284       .  A
O900       Zr937   2.415       .  S
C901        C970   1.464       .  S
O902        C904   1.287       .  A
O902       Zr914   2.445       .  S
O903        C904   1.284       .  A
O903       Zr938   2.416       .  S
C904       C1026   1.463       .  S
O905        C907   1.288       .  A
O905      Zr1946   2.446       .  S
O906        C907   1.284       .  A
O906       Zr937   2.414       .  S
C907        C961   1.463       .  S
O908        C910   1.288       .  A
O908       Zr911   2.448       .  S
O909        C910   1.284       .  A
O909       Zr938   2.415       .  S
C910        C990   1.464       .  S
Zr911      O1931   2.449   1_455  S
Zr911       O912   2.433       .  S
Zr911       O913   2.435       .  S
Zr911      O1949   2.375   1_455  S
Zr911       O918   2.372       .  S
Zr911       O941   2.374       .  S
Zr911      O1975   2.375   1_455  S
O912       H1987   0.990   1_455  S
O913       H1986   0.990   1_455  S
O913        H958   0.990       .  S
Zr914      O1937   2.446   1_455  S
Zr914       O915   2.436       .  S
Zr914       O916   2.435       .  S
Zr914       O918   2.372       .  S
Zr914      O1949   2.374   1_455  S
Zr914      O1974   2.372   1_455  S
Zr914       O944   2.377       .  S
O915        H956   0.990       .  S
O915        H959   0.990       .  S
O916       H1981   0.990       .  S
O917      Zr1943   2.375       .  S
O917      Zr1946   2.374       .  S
O917       Zr937   2.376       .  S
O918       Zr938   2.378       .  S
O918        H945   0.966       .  S
O919        C921   1.288       .  A
O919       Zr931   2.449       .  S
O920        C921   1.283       .  A
O920       Zr938   2.411       .  S
C921       C1001   1.462       .  S
O922        C924   1.287       .  A
O922      Zr1966   2.445       .  S
O923        C924   1.284       .  A
O923       Zr937   2.415       .  S
C924        C983   1.463       .  S
O925        C927   1.288       .  A
O925       Zr934   2.448       .  S
O926        C927   1.283       .  A
O926       Zr938   2.412       .  S
C927       C1008   1.462       .  S
O928        C930   1.288       .  A
O928      Zr1963   2.449       .  S
O929        C930   1.284       .  A
O929       Zr937   2.412       .  S
C930       C1017   1.462       .  S
Zr931      O1960   2.449   1_455  S
Zr931       O932   2.436       .  S
Zr931       O933   2.435       .  S
Zr931       O939   2.374       .  S
Zr931      O1972   2.374   1_455  S
Zr931      O1975   2.374   1_455  S
Zr931       O941   2.375       .  S
O932        H952   0.990       .  S
O932        H957   0.990       .  S
O933        H953   0.990       .  S
Zr934      O1954   2.445   1_455  S
Zr934       O935   2.433       .  S
Zr934       O936   2.435       .  S
Zr934      O1972   2.375   1_455  S
Zr934       O939   2.371       .  S
Zr934       O944   2.375       .  S
Zr934      O1974   2.371   1_455  S
O935       H1983   0.990   1_455  S
O936        H950   0.990       .  S
O936        H960   0.990       .  S
Zr937       O940   2.377       .  S
Zr937       O942   2.380       .  S
Zr937       O943   2.381       .  S
Zr938       O939   2.381       .  S
Zr938       O941   2.378       .  S
Zr938       O944   2.378       .  S
O939        H947   0.966       .  S
O940      Zr1963   2.374       .  S
O940      Zr1966   2.375       .  S
O942      Zr1946   2.372       .  S
O942      Zr1966   2.371       .  S
O942        H946   0.966       .  S
O943      Zr1943   2.375       .  S
O943      Zr1963   2.374       .  S
O943        H948   0.966       .  S
H949       O1948   0.990       .  S
H951       O1967   0.990       .  S
H954       O1945   0.990       .  S
H955       O1944   0.990       .  S
C961        C962   1.402       .  A
C961        C966   1.402       .  A
C962        C963   1.402       .  A
C962        H967   1.085       .  S
C963        C964   1.402       .  A
C964        C965   1.402       .  A
C964        H968   1.085       .  S
C965        C966   1.401       .  A
C966        H969   1.085       .  S
C970        C971   1.401       .  A
C970        C975   1.403       .  A
C971        C972   1.401       .  A
C971        H976   1.085       .  S
C972        C973   1.401       .  A
C973        C974   1.401       .  A
C973        H977   1.084       .  S
C974        C975   1.403       .  A
C975        H978   1.084       .  S
C979        C980   1.401       .  A
C979        C984   1.402       .  A
C980        C981   1.401       .  A
C980        H985   1.085       .  S
C981        C982   1.401       .  A
C982        C983   1.401       .  A
C982        H986   1.085       .  S
C983        C984   1.401       .  A
C984        H987   1.085       .  S
C988        C989   1.401       .  A
C988        C993   1.401       .  A
C989        C990   1.401       .  A
C989        H994   1.085       .  S
C990        C991   1.402       .  A
C991        C992   1.402       .  A
C991        H995   1.085       .  S
C992        C993   1.401       .  A
C993        H996   1.085       .  S
C997        C998   1.403       .  A
C997       C1002   1.401       .  A
C998        C999   1.402       .  A
C998       H1003   1.084       .  S
C999       C1000   1.401       .  A
C1000      C1001   1.401       .  A
C1000      H1004   1.085       .  S
C1001      C1002   1.402       .  A
C1002      H1005   1.085       .  S
C1006      C1007   1.401       .  A
C1006      C1011   1.402       .  A
C1007      C1008   1.401       .  A
C1007      H1012   1.085       .  S
C1008      C1009   1.401       .  A
C1009      C1010   1.401       .  A
C1009      H1013   1.085       .  S
C1010      C1011   1.402       .  A
C1011      H1014   1.085       .  S
C1015      C1016   1.401       .  A
C1015      C1020   1.402       .  A
C1016      C1017   1.401       .  A
C1016      H1021   1.085       .  S
C1017      C1018   1.401       .  A
C1018      C1019   1.401       .  A
C1018      H1022   1.085       .  S
C1019      C1020   1.401       .  A
C1020      H1023   1.085       .  S
C1024      C1025   1.400       .  A
C1024      C1029   1.402       .  A
C1025      C1026   1.400       .  A
C1025      H1030   1.085       .  S
C1026      C1027   1.403       .  A
C1027      C1028   1.403       .  A
C1027      H1031   1.085       .  S
C1028      C1029   1.401       .  A
C1029      H1032   1.084       .  S
O1033      C1035   1.289       .  A
O1033     Zr1303   2.452       .  S
O1034      C1035   1.283       .  A
O1034     Zr1071   2.412       .  S
C1035      C1264   1.464       .  S
O1036      C1038   1.288       .  A
O1036     Zr1048   2.448   1_554  S
O1037      C1038   1.284       .  A
O1037     Zr1072   2.414       .  S
C1038      C1250   1.463       .  S
O1039      C1041   1.288       .  A
O1039     Zr1306   2.448       .  S
O1040      C1041   1.284       .  A
O1040     Zr1071   2.417       .  S
C1041      C1255   1.465       .  S
O1042      C1044   1.288       .  A
O1042     Zr1045   2.450   1_554  S
O1043      C1044   1.284       .  A
O1043     Zr1072   2.415       .  S
C1044      C1286   1.464       .  S
Zr1045     O1291   2.452       .  S
Zr1045     O1046   2.433       .  S
Zr1045     O1047   2.435       .  S
Zr1045     O1309   2.376       .  S
Zr1045     O1052   2.374   1_556  S
Zr1045     O1075   2.375   1_556  S
Zr1045     O1335   2.373       .  S
O1046      H1347   0.990       .  S
O1047      H1346   0.990       .  S
O1047      H1092   0.990       .  S
Zr1048     O1297   2.448       .  S
Zr1048     O1307   2.434       .  S
Zr1048     O1050   2.434       .  S
Zr1048     O1052   2.373   1_556  S
Zr1048     O1309   2.373       .  S
Zr1048     O1334   2.373       .  S
Zr1048     O1078   2.376   1_556  S
O1049     Zr1306   2.435       .  S
O1049      H1348   0.990       .  S
O1049      H1351   0.990       .  S
O1050      H1341   0.990   1_556  S
O1051     Zr1303   2.376       .  S
O1051     Zr1306   2.373       .  S
O1051     Zr1071   2.376       .  S
O1052     Zr1072   2.380       .  S
O1052      H1079   0.966       .  S
O1053      C1055   1.288       .  A
O1053     Zr1323   2.451   1_554  S
O1054      C1055   1.284       .  A
O1054     Zr1072   2.415       .  S
C1055      C1221   1.464       .  S
O1056      C1058   1.287       .  A
O1056     Zr1068   2.446       .  S
O1057      C1058   1.284       .  A
O1057     Zr1071   2.413       .  S
C1058      C1273   1.462       .  S
O1059      C1061   1.287       .  A
O1059     Zr1326   2.445   1_554  S
O1060      C1061   1.284       .  A
O1060     Zr1072   2.416       .  S
C1061      C1232   1.463       .  S
O1062      C1064   1.288       .  A
O1062     Zr1065   2.447       .  S
O1063      C1064   1.284       .  A
O1063     Zr1071   2.412       .  S
C1064      C1237   1.462       .  S
Zr1065     O1311   2.450       .  S
Zr1065     O1066   2.435       .  S
Zr1065     O1067   2.434       .  S
Zr1065     O1331   2.372       .  S
Zr1065     O1074   2.376       .  S
Zr1065     O1077   2.374       .  S
Zr1065     O1333   2.375       .  S
O1066      H1344   0.990       .  S
O1066      H1091   0.990       .  S
O1067      H1345   0.990       .  S
Zr1068     O1317   2.445       .  S
Zr1068     O1327   2.434       .  S
Zr1068     O1070   2.434       .  S
Zr1068     O1074   2.373       .  S
Zr1068     O1331   2.371       .  S
Zr1068     O1336   2.375       .  S
Zr1068     O1076   2.372       .  S
O1069     Zr1326   2.434       .  S
O1069      H1343   0.990       .  S
O1070      H1342   0.990       .  S
O1070      H1094   0.990       .  S
Zr1071     O1074   2.378       .  S
Zr1071     O1076   2.378       .  S
Zr1071     O1077   2.382       .  S
Zr1072     O1073   2.381       .  S
Zr1072     O1075   2.379       .  S
Zr1072     O1078   2.377       .  S
O1073     Zr1323   2.372   1_554  S
O1073     Zr1326   2.371   1_554  S
O1073      H1081   0.966       .  S
O1075     Zr1323   2.375   1_554  S
O1076     Zr1306   2.373       .  S
O1076      H1080   0.966       .  S
O1077     Zr1303   2.372       .  S
O1077      H1082   0.966       .  S
O1078     Zr1326   2.375   1_554  S
H1083      O1308   0.990       .  S
H1084      O1328   0.990   1_554  S
H1085      O1327   0.990       .  S
H1086      O1324   0.990   1_554  S
H1087      O1325   0.990   1_554  S
H1088      O1305   0.990       .  S
H1089      O1304   0.990       .  S
H1090      O1307   0.990   1_554  S
H1093      O1307   0.990       .  S
O1095      C1097   1.287       .  A
O1095     Zr1623   2.445       .  S
O1096      C1097   1.284       .  A
O1096     Zr1133   2.415       .  S
C1097      C1246   1.462       .  S
O1098      C1100   1.287       .  A
O1098     Zr1110   2.445       .  S
O1099      C1100   1.284       .  A
O1099     Zr1134   2.414       .  S
C1100      C1223   1.462       .  S
O1101      C1103   1.288       .  A
O1101     Zr1626   2.449       .  S
O1102      C1103   1.284       .  A
O1102     Zr1133   2.415       .  S
C1103      C1230   1.464       .  S
O1104      C1106   1.287       .  A
O1104     Zr1107   2.443       .  S
O1105      C1106   1.285       .  A
O1105     Zr1134   2.418       .  S
C1106      C1282   1.462       .  S
Zr1107     O1611   2.444   1_545  S
Zr1107     O1108   2.433       .  S
Zr1107     O1109   2.435       .  S
Zr1107     O1629   2.373   1_545  S
Zr1107     O1114   2.371       .  S
Zr1107     O1137   2.374       .  S
Zr1107     O1655   2.372   1_545  S
O1108      H1667   0.990   1_545  S
O1109      H1666   0.990   1_545  S
O1109      H1154   0.990   1_545  S
Zr1110     O1617   2.447   1_545  S
Zr1110     O1111   2.435       .  S
Zr1110     O1112   2.434       .  S
Zr1110     O1114   2.373       .  S
Zr1110     O1629   2.373   1_545  S
Zr1110     O1654   2.374   1_545  S
Zr1110     O1140   2.376       .  S
O1111      H1152   0.990       .  S
O1111      H1155   0.990       .  S
O1112      H1661   0.990   1_545  S
O1113     Zr1623   2.373       .  S
O1113     Zr1626   2.373       .  S
O1113     Zr1133   2.377       .  S
O1114     Zr1134   2.382       .  S
O1114      H1141   0.966       .  S
O1115      C1117   1.288       .  A
O1115     Zr1127   2.449       .  S
O1116      C1117   1.285       .  A
O1116     Zr1134   2.418       .  S
C1117      C1268   1.464       .  S
O1118      C1120   1.288       .  A
O1118     Zr1646   2.447       .  S
O1119      C1120   1.284       .  A
O1119     Zr1133   2.416       .  S
C1120      C1277   1.464       .  S
O1121      C1123   1.288       .  A
O1121     Zr1130   2.449       .  S
O1122      C1123   1.284       .  A
O1122     Zr1134   2.416       .  S
C1123      C1239   1.463       .  S
O1124      C1126   1.288       .  A
O1124     Zr1643   2.450       .  S
O1125      C1126   1.284       .  A
O1125     Zr1133   2.415       .  S
C1126      C1257   1.464       .  S
Zr1127     O1640   2.448   1_545  S
Zr1127     O1128   2.435       .  S
Zr1127     O1129   2.435       .  S
Zr1127     O1135   2.374       .  S
Zr1127     O1652   2.375   1_545  S
Zr1127     O1655   2.372   1_545  S
Zr1127     O1137   2.374       .  S
O1128      H1148   0.990       .  S
O1128      H1153   0.990       .  S
O1129      H1149   0.990       .  S
Zr1130     O1634   2.445   1_545  S
Zr1130     O1131   2.433       .  S
Zr1130     O1132   2.435       .  S
Zr1130     O1652   2.376   1_545  S
Zr1130     O1135   2.374       .  S
Zr1130     O1140   2.374       .  S
Zr1130     O1654   2.373   1_545  S
O1131      H1663   0.990   1_545  S
O1132      H1146   0.990       .  S
O1132      H1156   0.990       .  S
Zr1133     O1136   2.377       .  S
Zr1133     O1138   2.383       .  S
Zr1133     O1139   2.381       .  S
Zr1134     O1135   2.382       .  S
Zr1134     O1137   2.377       .  S
Zr1134     O1140   2.379       .  S
O1135      H1143   0.966       .  S
O1136     Zr1643   2.374       .  S
O1136     Zr1646   2.377       .  S
O1138     Zr1626   2.375       .  S
O1138     Zr1646   2.372       .  S
O1138      H1142   0.966       .  S
O1139     Zr1623   2.373       .  S
O1139     Zr1643   2.371       .  S
O1139      H1144   0.966       .  S
H1145      O1628   0.990       .  S
H1147      O1647   0.990       .  S
H1150      O1625   0.990       .  S
H1151      O1624   0.990       .  S
O1157      C1159   1.288       .  A
O1158      C1159   1.284       .  A
O1158     Zr1195   2.413       .  S
C1159      C1228   1.464       .  S
O1160      C1162   1.287       .  A
O1160     Zr1172   2.445       .  S
O1161      C1162   1.284       .  A
O1161     Zr1196   2.415       .  S
C1162      C1284   1.462       .  S
O1163      C1165   1.288       .  A
O1164      C1165   1.283       .  A
O1164     Zr1195   2.412       .  S
C1165      C1219   1.462       .  S
O1166      C1168   1.288       .  A
O1166     Zr1169   2.448       .  S
O1167      C1168   1.284       .  A
O1167     Zr1196   2.417       .  S
C1168      C1248   1.465       .  S
Zr1169     O1170   2.433       .  S
Zr1169     O1171   2.436       .  S
Zr1169     O1176   2.373       .  S
Zr1169     O1199   2.375       .  S
O1171      H1216   0.990       .  S
Zr1172     O1173   2.436       .  S
Zr1172     O1174   2.435       .  S
Zr1172     O1176   2.373       .  S
Zr1172     O1202   2.377       .  S
O1173      H1214   0.990       .  S
O1173      H1217   0.990       .  S
O1175     Zr1195   2.377       .  S
O1176     Zr1196   2.379       .  S
O1176      H1203   0.966       .  S
O1177      C1179   1.288       .  A
O1177     Zr1189   2.449       .  S
O1178      C1179   1.284       .  A
O1178     Zr1196   2.414       .  S
C1179      C1259   1.463       .  S
O1180      C1182   1.288       .  A
O1181      C1182   1.284       .  A
O1181     Zr1195   2.414       .  S
C1182      C1241   1.463       .  S
O1183      C1185   1.287       .  A
O1183     Zr1192   2.446       .  S
O1184      C1185   1.284       .  A
O1184     Zr1196   2.413       .  S
C1185      C1266   1.461       .  S
O1186      C1188   1.288       .  A
O1187      C1188   1.284       .  A
O1187     Zr1195   2.412       .  S
C1188      C1275   1.463       .  S
Zr1189     O1190   2.436       .  S
Zr1189     O1191   2.435       .  S
Zr1189     O1197   2.373       .  S
Zr1189     O1199   2.376       .  S
O1190      H1210   0.990       .  S
O1190      H1215   0.990       .  S
O1191      H1211   0.990       .  S
Zr1192     O1193   2.434       .  S
Zr1192     O1194   2.435       .  S
Zr1192     O1197   2.371       .  S
Zr1192     O1202   2.375       .  S
O1194      H1208   0.990       .  S
O1194      H1218   0.990       .  S
Zr1195     O1198   2.375       .  S
Zr1195     O1200   2.380       .  S
Zr1195     O1201   2.381       .  S
Zr1196     O1197   2.380       .  S
Zr1196     O1199   2.378       .  S
Zr1196     O1202   2.378       .  S
O1197      H1205   0.966       .  S
O1200      H1204   0.966       .  S
O1201      H1206   0.966       .  S
C1219      C1220   1.402       .  A
C1219      C1224   1.401       .  A
C1220      C1221   1.402       .  A
C1220      H1225   1.084       .  S
C1221      C1222   1.401       .  A
C1222      C1223   1.401       .  A
C1222      H1226   1.085       .  S
C1223      C1224   1.400       .  A
C1224      H1227   1.085       .  S
C1228      C1229   1.402       .  A
C1228      C1233   1.402       .  A
C1229      C1230   1.401       .  A
C1229      H1234   1.085       .  S
C1230      C1231   1.401       .  A
C1231      C1232   1.402       .  A
C1231      H1235   1.085       .  S
C1232      C1233   1.402       .  A
C1233      H1236   1.085       .  S
C1237      C1238   1.401       .  A
C1237      C1242   1.402       .  A
C1238      C1239   1.401       .  A
C1238      H1243   1.085       .  S
C1239      C1240   1.401       .  A
C1240      C1241   1.401       .  A
C1240      H1244   1.085       .  S
C1241      C1242   1.401       .  A
C1242      H1245   1.085       .  S
C1246      C1247   1.401       .  A
C1246      C1251   1.401       .  A
C1247      C1248   1.401       .  A
C1247      H1252   1.085       .  S
C1248      C1249   1.402       .  A
C1249      C1250   1.402       .  A
C1249      H1253   1.085       .  S
C1250      C1251   1.401       .  A
C1251      H1254   1.085       .  S
C1255      C1256   1.402       .  A
C1255      C1260   1.402       .  A
C1256      C1257   1.402       .  A
C1256      H1261   1.084       .  S
C1257      C1258   1.401       .  A
C1258      C1259   1.401       .  A
C1258      H1262   1.085       .  S
C1259      C1260   1.402       .  A
C1260      H1263   1.085       .  S
C1264      C1265   1.401       .  A
C1264      C1269   1.402       .  A
C1265      C1266   1.402       .  A
C1265      H1270   1.085       .  S
C1266      C1267   1.401       .  A
C1267      C1268   1.400       .  A
C1267      H1271   1.085       .  S
C1268      C1269   1.402       .  A
C1269      H1272   1.085       .  S
C1273      C1274   1.401       .  A
C1273      C1278   1.402       .  A
C1274      C1275   1.401       .  A
C1274      H1279   1.085       .  S
C1275      C1276   1.401       .  A
C1276      C1277   1.401       .  A
C1276      H1280   1.085       .  S
C1277      C1278   1.401       .  A
C1278      H1281   1.085       .  S
C1282      C1283   1.401       .  A
C1282      C1287   1.401       .  A
C1283      C1284   1.401       .  A
C1283      H1288   1.085       .  S
C1284      C1285   1.402       .  A
C1285      C1286   1.402       .  A
C1285      H1289   1.085       .  S
C1286      C1287   1.401       .  A
C1287      H1290   1.085       .  S
O1291      C1293   1.289       .  A
O1292      C1293   1.283       .  A
O1292     Zr1329   2.412       .  S
C1293      C1522   1.464       .  S
O1294      C1296   1.288       .  A
O1294     Zr1306   2.448       .  S
O1295      C1296   1.284       .  A
O1295     Zr1330   2.413       .  S
C1296      C1508   1.463       .  S
O1297      C1299   1.288       .  A
O1298      C1299   1.284       .  A
O1298     Zr1329   2.417       .  S
C1299      C1513   1.465       .  S
O1300      C1302   1.288       .  A
O1300     Zr1303   2.449       .  S
O1301      C1302   1.284       .  A
O1301     Zr1330   2.414       .  S
C1302      C1544   1.463       .  S
Zr1303     O1304   2.433       .  S
Zr1303     O1305   2.435       .  S
Zr1303     O1310   2.374       .  S
Zr1303     O1333   2.375       .  S
O1305      H1350   0.990       .  S
Zr1306     O1308   2.434       .  S
Zr1306     O1310   2.373       .  S
Zr1306     O1336   2.376       .  S
O1309     Zr1329   2.376       .  S
O1310     Zr1330   2.380       .  S
O1310      H1337   0.966       .  S
O1311      C1313   1.288       .  A
O1312      C1313   1.284       .  A
O1312     Zr1330   2.414       .  S
C1313      C1479   1.464       .  S
O1314      C1316   1.287       .  A
O1314     Zr1326   2.445       .  S
O1315      C1316   1.284       .  A
O1315     Zr1329   2.413       .  S
C1316      C1531   1.462       .  S
O1317      C1319   1.287       .  A
O1318      C1319   1.284       .  A
O1318     Zr1330   2.416       .  S
C1319      C1490   1.464       .  S
O1320      C1322   1.288       .  A
O1320     Zr1323   2.447       .  S
O1321      C1322   1.284       .  A
O1321     Zr1329   2.412       .  S
C1322      C1495   1.462       .  S
Zr1323     O1324   2.435       .  S
Zr1323     O1325   2.434       .  S
Zr1323     O1332   2.376       .  S
Zr1323     O1335   2.374       .  S
O1324      H1349   0.990       .  S
Zr1326     O1328   2.434       .  S
Zr1326     O1332   2.374       .  S
Zr1326     O1334   2.372       .  S
O1328      H1352   0.990       .  S
Zr1329     O1332   2.378       .  S
Zr1329     O1334   2.378       .  S
Zr1329     O1335   2.383       .  S
Zr1330     O1331   2.380       .  S
Zr1330     O1333   2.379       .  S
Zr1330     O1336   2.376       .  S
O1331      H1339   0.966       .  S
O1334      H1338   0.966       .  S
O1335      H1340   0.966       .  S
O1353      C1355   1.287       .  A
O1353     Zr1881   2.445       .  S
O1354      C1355   1.284       .  A
O1354     Zr1391   2.414       .  S
C1355      C1504   1.462       .  S
O1356      C1358   1.287       .  A
O1356     Zr1368   2.445       .  S
O1357      C1358   1.284       .  A
O1357     Zr1392   2.414       .  S
C1358      C1481   1.462       .  S
O1359      C1361   1.288       .  A
O1359     Zr1884   2.450       .  S
O1360      C1361   1.284       .  A
O1360     Zr1391   2.415       .  S
C1361      C1488   1.464       .  S
O1362      C1364   1.287       .  A
O1362     Zr1365   2.443       .  S
O1363      C1364   1.284       .  A
O1363     Zr1392   2.417       .  S
C1364      C1540   1.462       .  S
Zr1365     O1869   2.444   1_545  S
Zr1365     O1366   2.434       .  S
Zr1365     O1367   2.435       .  S
Zr1365     O1887   2.373   1_545  S
Zr1365     O1372   2.371       .  S
Zr1365     O1395   2.374       .  S
Zr1365     O1913   2.372   1_545  S
O1366      H1925   0.990   1_545  S
O1367      H1924   0.990   1_545  S
O1367      H1412   0.990   1_545  S
Zr1368     O1875   2.447   1_545  S
Zr1368     O1369   2.435       .  S
Zr1368     O1370   2.434       .  S
Zr1368     O1372   2.373       .  S
Zr1368     O1887   2.373   1_545  S
Zr1368     O1912   2.374   1_545  S
Zr1368     O1398   2.376       .  S
O1369      H1410   0.990       .  S
O1369      H1413   0.990       .  S
O1370      H1919   0.990   1_545  S
O1371     Zr1881   2.372       .  S
O1371     Zr1884   2.373       .  S
O1371     Zr1391   2.377       .  S
O1372     Zr1392   2.382       .  S
O1372      H1399   0.966       .  S
O1373      C1375   1.288       .  A
O1373     Zr1385   2.449       .  S
O1374      C1375   1.284       .  A
O1374     Zr1392   2.417       .  S
C1375      C1526   1.464       .  S
O1376      C1378   1.288       .  A
O1376     Zr1904   2.447       .  S
O1377      C1378   1.284       .  A
O1377     Zr1391   2.415       .  S
C1378      C1535   1.463       .  S
O1379      C1381   1.288       .  A
O1379     Zr1388   2.448       .  S
O1380      C1381   1.284       .  A
O1380     Zr1392   2.415       .  S
C1381      C1497   1.463       .  S
O1382      C1384   1.288       .  A
O1382     Zr1901   2.449       .  S
O1383      C1384   1.284       .  A
O1383     Zr1391   2.415       .  S
C1384      C1515   1.464       .  S
Zr1385     O1898   2.449   1_545  S
Zr1385     O1386   2.435       .  S
Zr1385     O1387   2.435       .  S
Zr1385     O1393   2.374       .  S
Zr1385     O1910   2.375   1_545  S
Zr1385     O1913   2.372   1_545  S
Zr1385     O1395   2.375       .  S
O1386      H1406   0.990       .  S
O1386      H1411   0.990       .  S
O1387      H1407   0.990       .  S
Zr1388     O1892   2.445   1_545  S
Zr1388     O1389   2.433       .  S
Zr1388     O1390   2.435       .  S
Zr1388     O1910   2.376   1_545  S
Zr1388     O1393   2.374       .  S
Zr1388     O1398   2.374       .  S
Zr1388     O1912   2.373   1_545  S
O1389      H1921   0.990   1_545  S
O1390      H1404   0.990       .  S
O1390      H1414   0.990       .  S
Zr1391     O1394   2.377       .  S
Zr1391     O1396   2.382       .  S
Zr1391     O1397   2.381       .  S
Zr1392     O1393   2.382       .  S
Zr1392     O1395   2.378       .  S
Zr1392     O1398   2.379       .  S
O1393      H1401   0.966       .  S
O1394     Zr1901   2.375       .  S
O1394     Zr1904   2.377       .  S
O1396     Zr1884   2.375       .  S
O1396     Zr1904   2.373       .  S
O1396      H1400   0.966       .  S
O1397     Zr1881   2.373       .  S
O1397     Zr1901   2.371       .  S
O1397      H1402   0.966       .  S
H1403      O1886   0.990       .  S
H1405      O1905   0.990       .  S
H1408      O1883   0.990       .  S
H1409      O1882   0.990       .  S
O1415      C1417   1.288       .  A
O1416      C1417   1.284       .  A
O1416     Zr1453   2.413       .  S
C1417      C1486   1.464       .  S
O1418      C1420   1.287       .  A
O1418     Zr1430   2.444       .  S
O1419      C1420   1.284       .  A
O1419     Zr1454   2.415       .  S
C1420      C1542   1.462       .  S
O1421      C1423   1.288       .  A
O1422      C1423   1.284       .  A
O1422     Zr1453   2.413       .  S
C1423      C1477   1.462       .  S
O1424      C1426   1.288       .  A
O1424     Zr1427   2.449       .  S
O1425      C1426   1.284       .  A
O1425     Zr1454   2.417       .  S
C1426      C1506   1.465       .  S
Zr1427     O1428   2.433       .  S
Zr1427     O1429   2.436       .  S
Zr1427     O1434   2.373       .  S
Zr1427     O1457   2.375       .  S
O1429      H1474   0.990       .  S
Zr1430     O1431   2.436       .  S
Zr1430     O1432   2.435       .  S
Zr1430     O1434   2.373       .  S
Zr1430     O1460   2.377       .  S
O1431      H1472   0.990       .  S
O1431      H1475   0.990       .  S
O1433     Zr1453   2.377       .  S
O1434     Zr1454   2.378       .  S
O1434      H1461   0.966       .  S
O1435      C1437   1.288       .  A
O1435     Zr1447   2.449       .  S
O1436      C1437   1.284       .  A
O1436     Zr1454   2.413       .  S
C1437      C1517   1.463       .  S
O1438      C1440   1.287       .  A
O1439      C1440   1.284       .  A
O1439     Zr1453   2.414       .  S
C1440      C1499   1.462       .  S
O1441      C1443   1.288       .  A
O1441     Zr1450   2.447       .  S
O1442      C1443   1.284       .  A
O1442     Zr1454   2.413       .  S
C1443      C1524   1.462       .  S
O1444      C1446   1.288       .  A
O1445      C1446   1.284       .  A
O1445     Zr1453   2.413       .  S
C1446      C1533   1.463       .  S
Zr1447     O1448   2.436       .  S
Zr1447     O1449   2.435       .  S
Zr1447     O1455   2.373       .  S
Zr1447     O1457   2.375       .  S
O1448      H1468   0.990       .  S
O1448      H1473   0.990       .  S
O1449      H1469   0.990       .  S
Zr1450     O1451   2.434       .  S
Zr1450     O1452   2.435       .  S
Zr1450     O1455   2.371       .  S
Zr1450     O1460   2.376       .  S
O1452      H1466   0.990       .  S
O1452      H1476   0.990       .  S
Zr1453     O1456   2.375       .  S
Zr1453     O1458   2.380       .  S
Zr1453     O1459   2.381       .  S
Zr1454     O1455   2.380       .  S
Zr1454     O1457   2.377       .  S
Zr1454     O1460   2.378       .  S
O1455      H1463   0.966       .  S
O1458      H1462   0.966       .  S
O1459      H1464   0.966       .  S
C1477      C1478   1.402       .  A
C1477      C1482   1.401       .  A
C1478      C1479   1.402       .  A
C1478      H1483   1.084       .  S
C1479      C1480   1.401       .  A
C1480      C1481   1.401       .  A
C1480      H1484   1.085       .  S
C1481      C1482   1.400       .  A
C1482      H1485   1.085       .  S
C1486      C1487   1.402       .  A
C1486      C1491   1.402       .  A
C1487      C1488   1.401       .  A
C1487      H1492   1.085       .  S
C1488      C1489   1.401       .  A
C1489      C1490   1.402       .  A
C1489      H1493   1.084       .  S
C1490      C1491   1.403       .  A
C1491      H1494   1.085       .  S
C1495      C1496   1.401       .  A
C1495      C1500   1.402       .  A
C1496      C1497   1.401       .  A
C1496      H1501   1.085       .  S
C1497      C1498   1.400       .  A
C1498      C1499   1.401       .  A
C1498      H1502   1.085       .  S
C1499      C1500   1.401       .  A
C1500      H1503   1.085       .  S
C1504      C1505   1.402       .  A
C1504      C1509   1.401       .  A
C1505      C1506   1.401       .  A
C1505      H1510   1.085       .  S
C1506      C1507   1.402       .  A
C1507      C1508   1.402       .  A
C1507      H1511   1.085       .  S
C1508      C1509   1.401       .  A
C1509      H1512   1.085       .  S
C1513      C1514   1.403       .  A
C1513      C1518   1.402       .  A
C1514      C1515   1.402       .  A
C1514      H1519   1.084       .  S
C1515      C1516   1.401       .  A
C1516      C1517   1.401       .  A
C1516      H1520   1.085       .  S
C1517      C1518   1.402       .  A
C1518      H1521   1.085       .  S
C1522      C1523   1.401       .  A
C1522      C1527   1.402       .  A
C1523      C1524   1.402       .  A
C1523      H1528   1.085       .  S
C1524      C1525   1.401       .  A
C1525      C1526   1.400       .  A
C1525      H1529   1.085       .  S
C1526      C1527   1.402       .  A
C1527      H1530   1.085       .  S
C1531      C1532   1.401       .  A
C1531      C1536   1.402       .  A
C1532      C1533   1.401       .  A
C1532      H1537   1.085       .  S
C1533      C1534   1.401       .  A
C1534      C1535   1.401       .  A
C1534      H1538   1.085       .  S
C1535      C1536   1.401       .  A
C1536      H1539   1.085       .  S
C1540      C1541   1.400       .  A
C1540      C1545   1.401       .  A
C1541      C1542   1.400       .  A
C1541      H1546   1.085       .  S
C1542      C1543   1.402       .  A
C1543      C1544   1.402       .  A
C1543      H1547   1.085       .  S
C1544      C1545   1.401       .  A
C1545      H1548   1.085       .  S
O1549      C1551   1.288       .  A
O1549     Zr1819   2.450       .  S
O1550      C1551   1.284       .  A
O1550     Zr1587   2.414       .  S
C1551      C1780   1.464       .  S
O1552      C1554   1.288       .  A
O1552     Zr1564   2.449   1_554  S
O1553      C1554   1.284       .  A
O1553     Zr1588   2.414       .  S
C1554      C1766   1.464       .  S
O1555      C1557   1.288       .  A
O1555     Zr1822   2.449       .  S
O1556      C1557   1.284       .  A
O1556     Zr1587   2.416       .  S
C1557      C1771   1.464       .  S
O1558      C1560   1.288       .  A
O1558     Zr1561   2.448   1_554  S
O1559      C1560   1.285       .  A
O1559     Zr1588   2.418       .  S
C1560      C1802   1.465       .  S
Zr1561     O1807   2.449       .  S
Zr1561     O1562   2.433       .  S
Zr1561     O1563   2.435       .  S
Zr1561     O1825   2.375       .  S
Zr1561     O1568   2.373   1_556  S
Zr1561     O1591   2.376   1_556  S
Zr1561     O1851   2.374       .  S
O1562      H1863   0.990       .  S
O1563      H1862   0.990       .  S
O1563      H1608   0.990       .  S
Zr1564     O1813   2.449       .  S
Zr1564     O1823   2.435       .  S
Zr1564     O1566   2.434       .  S
Zr1564     O1568   2.371   1_556  S
Zr1564     O1825   2.373       .  S
Zr1564     O1850   2.374       .  S
Zr1564     O1594   2.377   1_556  S
O1565     Zr1822   2.435       .  S
O1565      H1864   0.990       .  S
O1565      H1867   0.990       .  S
O1566      H1857   0.990       .  S
O1567     Zr1819   2.375       .  S
O1567     Zr1822   2.373       .  S
O1567     Zr1587   2.376       .  S
O1568     Zr1588   2.378       .  S
O1568      H1595   0.966       .  S
O1569      C1571   1.288       .  A
O1569     Zr1839   2.450   1_554  S
O1570      C1571   1.284       .  A
O1570     Zr1588   2.415       .  S
C1571      C1737   1.464       .  S
O1572      C1574   1.287       .  A
O1572     Zr1584   2.443       .  S
O1573      C1574   1.284       .  A
O1573     Zr1587   2.416       .  S
C1574      C1789   1.461       .  S
O1575      C1577   1.288       .  A
O1575     Zr1842   2.447   1_554  S
O1576      C1577   1.284       .  A
O1576     Zr1588   2.417       .  S
C1577      C1748   1.464       .  S
O1578      C1580   1.288       .  A
O1578     Zr1581   2.446       .  S
O1579      C1580   1.284       .  A
O1579     Zr1587   2.413       .  S
C1580      C1753   1.462       .  S
Zr1581     O1827   2.451       .  S
Zr1581     O1582   2.435       .  S
Zr1581     O1583   2.433       .  S
Zr1581     O1847   2.371       .  S
Zr1581     O1590   2.376       .  S
Zr1581     O1593   2.374       .  S
Zr1581     O1849   2.375       .  S
O1582      H1860   0.990       .  S
O1582      H1607   0.990       .  S
O1583      H1861   0.990       .  S
Zr1584     O1833   2.447       .  S
Zr1584     O1843   2.434       .  S
Zr1584     O1586   2.434       .  S
Zr1584     O1590   2.374       .  S
Zr1584     O1847   2.370       .  S
Zr1584     O1852   2.375       .  S
Zr1584     O1592   2.373       .  S
O1585     Zr1842   2.435       .  S
O1585      H1859   0.990       .  S
O1586      H1858   0.990       .  S
O1586      H1610   0.990       .  S
Zr1587     O1590   2.377       .  S
Zr1587     O1592   2.379       .  S
Zr1587     O1593   2.382       .  S
Zr1588     O1589   2.380       .  S
Zr1588     O1591   2.378       .  S
Zr1588     O1594   2.378       .  S
O1589     Zr1839   2.371   1_554  S
O1589     Zr1842   2.370   1_554  S
O1589      H1597   0.966       .  S
O1591     Zr1839   2.375   1_554  S
O1592     Zr1822   2.374       .  S
O1592      H1596   0.966       .  S
O1593     Zr1819   2.373       .  S
O1593      H1598   0.966       .  S
O1594     Zr1842   2.375   1_554  S
H1599      O1824   0.990       .  S
H1600      O1844   0.990   1_554  S
H1601      O1843   0.990       .  S
H1602      O1840   0.990   1_554  S
H1603      O1841   0.990   1_554  S
H1604      O1821   0.990       .  S
H1605      O1820   0.990       .  S
H1606      O1823   0.990   1_554  S
H1609      O1823   0.990   1_554  S
O1611      C1613   1.287       .  A
O1612      C1613   1.284       .  A
O1612     Zr1649   2.415       .  S
C1613      C1762   1.462       .  S
O1614      C1616   1.288       .  A
O1614     Zr1626   2.449       .  S
O1615      C1616   1.284       .  A
O1615     Zr1650   2.416       .  S
C1616      C1739   1.464       .  S
O1617      C1619   1.288       .  A
O1618      C1619   1.284       .  A
O1618     Zr1649   2.417       .  S
C1619      C1746   1.464       .  S
O1620      C1622   1.287       .  A
O1620     Zr1623   2.443       .  S
O1621      C1622   1.284       .  A
O1621     Zr1650   2.418       .  S
C1622      C1798   1.462       .  S
Zr1623     O1624   2.433       .  S
Zr1623     O1625   2.436       .  S
Zr1623     O1630   2.372       .  S
Zr1623     O1653   2.375       .  S
O1625      H1670   0.990       .  S
Zr1626     O1627   2.435       .  S
Zr1626     O1628   2.434       .  S
Zr1626     O1630   2.374       .  S
Zr1626     O1656   2.375       .  S
O1627      H1668   0.990       .  S
O1627      H1671   0.990       .  S
O1629     Zr1649   2.377       .  S
O1630     Zr1650   2.381       .  S
O1630      H1657   0.966       .  S
O1631      C1633   1.288       .  A
O1631     Zr1643   2.448       .  S
O1632      C1633   1.284       .  A
O1632     Zr1650   2.416       .  S
C1633      C1784   1.464       .  S
O1634      C1636   1.287       .  A
O1635      C1636   1.284       .  A
O1635     Zr1649   2.415       .  S
C1636      C1793   1.462       .  S
O1637      C1639   1.288       .  A
O1637     Zr1646   2.447       .  S
O1638      C1639   1.284       .  A
O1638     Zr1650   2.415       .  S
C1639      C1755   1.462       .  S
O1640      C1642   1.288       .  A
O1641      C1642   1.284       .  A
O1641     Zr1649   2.415       .  S
C1642      C1773   1.463       .  S
Zr1643     O1644   2.435       .  S
Zr1643     O1645   2.435       .  S
Zr1643     O1651   2.373       .  S
Zr1643     O1653   2.376       .  S
O1644      H1664   0.990       .  S
O1644      H1669   0.990       .  S
O1645      H1665   0.990       .  S
Zr1646     O1647   2.433       .  S
Zr1646     O1648   2.435       .  S
Zr1646     O1651   2.374       .  S
Zr1646     O1656   2.375       .  S
O1648      H1662   0.990       .  S
O1648      H1672   0.990       .  S
Zr1649     O1652   2.377       .  S
Zr1649     O1654   2.381       .  S
Zr1649     O1655   2.380       .  S
Zr1650     O1651   2.382       .  S
Zr1650     O1653   2.378       .  S
Zr1650     O1656   2.380       .  S
O1651      H1659   0.966       .  S
O1654      H1658   0.966       .  S
O1655      H1660   0.966       .  S
O1673      C1675   1.288       .  A
O1674      C1675   1.284       .  A
O1674     Zr1711   2.416       .  S
C1675      C1744   1.465       .  S
O1676      C1678   1.287       .  A
O1676     Zr1688   2.446       .  S
O1677      C1678   1.284       .  A
O1677     Zr1712   2.415       .  S
C1678      C1800   1.463       .  S
O1679      C1681   1.288       .  A
O1680      C1681   1.284       .  A
O1680     Zr1711   2.414       .  S
C1681      C1735   1.463       .  S
O1682      C1684   1.288       .  A
O1682     Zr1685   2.447       .  S
O1683      C1684   1.284       .  A
O1683     Zr1712   2.416       .  S
C1684      C1764   1.464       .  S
Zr1685     O1686   2.433       .  S
Zr1685     O1687   2.435       .  S
Zr1685     O1692   2.372       .  S
Zr1685     O1715   2.374       .  S
O1687      H1732   0.990       .  S
Zr1688     O1689   2.436       .  S
Zr1688     O1690   2.435       .  S
Zr1688     O1692   2.372       .  S
Zr1688     O1718   2.377       .  S
O1689      H1730   0.990       .  S
O1689      H1733   0.990       .  S
O1691     Zr1711   2.376       .  S
O1692     Zr1712   2.379       .  S
O1692      H1719   0.966       .  S
O1693      C1695   1.288       .  A
O1693     Zr1705   2.448       .  S
O1694      C1695   1.283       .  A
O1694     Zr1712   2.412       .  S
C1695      C1775   1.462       .  S
O1696      C1698   1.287       .  A
O1697      C1698   1.284       .  A
O1697     Zr1711   2.415       .  S
C1698      C1757   1.462       .  S
O1699      C1701   1.288       .  A
O1699     Zr1708   2.448       .  S
O1700      C1701   1.283       .  A
O1700     Zr1712   2.412       .  S
C1701      C1782   1.462       .  S
O1702      C1704   1.288       .  A
O1703      C1704   1.284       .  A
O1703     Zr1711   2.413       .  S
C1704      C1791   1.462       .  S
Zr1705     O1706   2.436       .  S
Zr1705     O1707   2.436       .  S
Zr1705     O1713   2.374       .  S
Zr1705     O1715   2.375       .  S
O1706      H1726   0.990       .  S
O1706      H1731   0.990       .  S
O1707      H1727   0.990       .  S
Zr1708     O1709   2.433       .  S
Zr1708     O1710   2.435       .  S
Zr1708     O1713   2.371       .  S
Zr1708     O1718   2.375       .  S
O1710      H1724   0.990       .  S
O1710      H1734   0.990       .  S
Zr1711     O1714   2.377       .  S
Zr1711     O1716   2.380       .  S
Zr1711     O1717   2.381       .  S
Zr1712     O1713   2.381       .  S
Zr1712     O1715   2.378       .  S
Zr1712     O1718   2.378       .  S
O1713      H1721   0.966       .  S
O1716      H1720   0.966       .  S
O1717      H1722   0.966       .  S
C1735      C1736   1.402       .  A
C1735      C1740   1.401       .  A
C1736      C1737   1.402       .  A
C1736      H1741   1.085       .  S
C1737      C1738   1.402       .  A
C1738      C1739   1.402       .  A
C1738      H1742   1.085       .  S
C1739      C1740   1.401       .  A
C1740      H1743   1.085       .  S
C1744      C1745   1.402       .  A
C1744      C1749   1.403       .  A
C1745      C1746   1.401       .  A
C1745      H1750   1.085       .  S
C1746      C1747   1.401       .  A
C1747      C1748   1.401       .  A
C1747      H1751   1.085       .  S
C1748      C1749   1.403       .  A
C1749      H1752   1.084       .  S
C1753      C1754   1.401       .  A
C1753      C1758   1.401       .  A
C1754      C1755   1.401       .  A
C1754      H1759   1.085       .  S
C1755      C1756   1.401       .  A
C1756      C1757   1.401       .  A
C1756      H1760   1.085       .  S
C1757      C1758   1.401       .  A
C1758      H1761   1.085       .  S
C1762      C1763   1.401       .  A
C1762      C1767   1.401       .  A
C1763      C1764   1.401       .  A
C1763      H1768   1.085       .  S
C1764      C1765   1.402       .  A
C1765      C1766   1.402       .  A
C1765      H1769   1.085       .  S
C1766      C1767   1.401       .  A
C1767      H1770   1.085       .  S
C1771      C1772   1.402       .  A
C1771      C1776   1.401       .  A
C1772      C1773   1.402       .  A
C1772      H1777   1.084       .  S
C1773      C1774   1.401       .  A
C1774      C1775   1.401       .  A
C1774      H1778   1.085       .  S
C1775      C1776   1.402       .  A
C1776      H1779   1.085       .  S
C1780      C1781   1.401       .  A
C1780      C1785   1.402       .  A
C1781      C1782   1.402       .  A
C1781      H1786   1.085       .  S
C1782      C1783   1.401       .  A
C1783      C1784   1.401       .  A
C1783      H1787   1.085       .  S
C1784      C1785   1.402       .  A
C1785      H1788   1.085       .  S
C1789      C1790   1.401       .  A
C1789      C1794   1.401       .  A
C1790      C1791   1.401       .  A
C1790      H1795   1.084       .  S
C1791      C1792   1.401       .  A
C1792      C1793   1.401       .  A
C1792      H1796   1.085       .  S
C1793      C1794   1.401       .  A
C1794      H1797   1.085       .  S
C1798      C1799   1.400       .  A
C1798      C1803   1.401       .  A
C1799      C1800   1.400       .  A
C1799      H1804   1.085       .  S
C1800      C1801   1.403       .  A
C1801      C1802   1.403       .  A
C1801      H1805   1.085       .  S
C1802      C1803   1.401       .  A
C1803      H1806   1.085       .  S
O1807      C1809   1.288       .  A
O1808      C1809   1.284       .  A
O1808     Zr1845   2.414       .  S
C1809      C2038   1.463       .  S
O1810      C1812   1.288       .  A
O1810     Zr1822   2.449       .  S
O1811      C1812   1.284       .  A
O1811     Zr1846   2.415       .  S
C1812      C2024   1.464       .  S
O1813      C1815   1.288       .  A
O1814      C1815   1.284       .  A
O1814     Zr1845   2.415       .  S
C1815      C2029   1.464       .  S
O1816      C1818   1.288       .  A
O1816     Zr1819   2.448       .  S
O1817      C1818   1.285       .  A
O1817     Zr1846   2.418       .  S
C1818      C2060   1.465       .  S
Zr1819     O1820   2.433       .  S
Zr1819     O1821   2.435       .  S
Zr1819     O1826   2.373       .  S
Zr1819     O1849   2.375       .  S
O1821      H1866   0.990       .  S
Zr1822     O1824   2.435       .  S
Zr1822     O1826   2.372       .  S
Zr1822     O1852   2.377       .  S
O1825     Zr1845   2.375       .  S
O1826     Zr1846   2.378       .  S
O1826      H1853   0.966       .  S
O1827      C1829   1.288       .  A
O1828      C1829   1.284       .  A
O1828     Zr1846   2.415       .  S
C1829      C1995   1.465       .  S
O1830      C1832   1.287       .  A
O1830     Zr1842   2.444       .  S
O1831      C1832   1.284       .  A
O1831     Zr1845   2.416       .  S
C1832      C2047   1.462       .  S
O1833      C1835   1.288       .  A
O1834      C1835   1.284       .  A
O1834     Zr1846   2.417       .  S
C1835      C2006   1.464       .  S
O1836      C1838   1.288       .  A
O1836     Zr1839   2.446       .  S
O1837      C1838   1.284       .  A
O1837     Zr1845   2.412       .  S
C1838      C2011   1.462       .  S
Zr1839     O1840   2.435       .  S
Zr1839     O1841   2.433       .  S
Zr1839     O1848   2.375       .  S
Zr1839     O1851   2.374       .  S
O1840      H1865   0.990       .  S
Zr1842     O1844   2.434       .  S
Zr1842     O1848   2.374       .  S
Zr1842     O1850   2.373       .  S
O1844      H1868   0.990       .  S
Zr1845     O1848   2.377       .  S
Zr1845     O1850   2.379       .  S
Zr1845     O1851   2.382       .  S
Zr1846     O1847   2.380       .  S
Zr1846     O1849   2.378       .  S
Zr1846     O1852   2.378       .  S
O1847      H1855   0.966       .  S
O1850      H1854   0.966       .  S
O1851      H1856   0.966       .  S
O1869      C1871   1.287       .  A
O1870      C1871   1.284       .  A
O1870     Zr1907   2.415       .  S
C1871      C2020   1.462       .  S
O1872      C1874   1.288       .  A
O1872     Zr1884   2.449       .  S
O1873      C1874   1.284       .  A
O1873     Zr1908   2.415       .  S
C1874      C1997   1.464       .  S
O1875      C1877   1.288       .  A
O1876      C1877   1.284       .  A
O1876     Zr1907   2.417       .  S
C1877      C2004   1.464       .  S
O1878      C1880   1.287       .  A
O1878     Zr1881   2.443       .  S
O1879      C1880   1.285       .  A
O1879     Zr1908   2.418       .  S
C1880      C2056   1.462       .  S
Zr1881     O1882   2.433       .  S
Zr1881     O1883   2.436       .  S
Zr1881     O1888   2.371       .  S
Zr1881     O1911   2.375       .  S
O1883      H1928   0.990       .  S
Zr1884     O1885   2.435       .  S
Zr1884     O1886   2.434       .  S
Zr1884     O1888   2.374       .  S
Zr1884     O1914   2.375       .  S
O1885      H1926   0.990       .  S
O1885      H1929   0.990       .  S
O1887     Zr1907   2.377       .  S
O1888     Zr1908   2.381       .  S
O1888      H1915   0.966       .  S
O1889      C1891   1.288       .  A
O1889     Zr1901   2.449       .  S
O1890      C1891   1.284       .  A
O1890     Zr1908   2.416       .  S
C1891      C2042   1.463       .  S
O1892      C1894   1.287       .  A
O1893      C1894   1.284       .  A
O1893     Zr1907   2.414       .  S
C1894      C2051   1.462       .  S
O1895      C1897   1.288       .  A
O1895     Zr1904   2.448       .  S
O1896      C1897   1.284       .  A
O1896     Zr1908   2.415       .  S
C1897      C2013   1.463       .  S
O1898      C1900   1.288       .  A
O1899      C1900   1.284       .  A
O1899     Zr1907   2.415       .  S
C1900      C2031   1.464       .  S
Zr1901     O1902   2.435       .  S
Zr1901     O1903   2.435       .  S
Zr1901     O1909   2.374       .  S
Zr1901     O1911   2.376       .  S
O1902      H1922   0.990       .  S
O1902      H1927   0.990       .  S
O1903      H1923   0.990       .  S
Zr1904     O1905   2.433       .  S
Zr1904     O1906   2.435       .  S
Zr1904     O1909   2.374       .  S
Zr1904     O1914   2.374       .  S
O1906      H1920   0.990       .  S
O1906      H1930   0.990       .  S
Zr1907     O1910   2.378       .  S
Zr1907     O1912   2.381       .  S
Zr1907     O1913   2.381       .  S
Zr1908     O1909   2.382       .  S
Zr1908     O1911   2.378       .  S
Zr1908     O1914   2.379       .  S
O1909      H1917   0.966       .  S
O1912      H1916   0.966       .  S
O1913      H1918   0.966       .  S
O1931      C1933   1.288       .  A
O1932      C1933   1.284       .  A
O1932     Zr1969   2.415       .  S
C1933      C2002   1.465       .  S
O1934      C1936   1.287       .  A
O1934     Zr1946   2.446       .  S
O1935      C1936   1.284       .  A
O1935     Zr1970   2.415       .  S
C1936      C2058   1.463       .  S
O1937      C1939   1.288       .  A
O1938      C1939   1.284       .  A
O1938     Zr1969   2.414       .  S
C1939      C1993   1.463       .  S
O1940      C1942   1.288       .  A
O1940     Zr1943   2.447       .  S
O1941      C1942   1.284       .  A
O1941     Zr1970   2.416       .  S
C1942      C2022   1.464       .  S
Zr1943     O1944   2.433       .  S
Zr1943     O1945   2.435       .  S
Zr1943     O1950   2.372       .  S
Zr1943     O1973   2.374       .  S
O1945      H1990   0.990       .  S
Zr1946     O1947   2.436       .  S
Zr1946     O1948   2.434       .  S
Zr1946     O1950   2.372       .  S
Zr1946     O1976   2.377       .  S
O1947      H1988   0.990       .  S
O1947      H1991   0.990       .  S
O1949     Zr1969   2.376       .  S
O1950     Zr1970   2.379       .  S
O1950      H1977   0.966       .  S
O1951      C1953   1.288       .  A
O1951     Zr1963   2.448       .  S
O1952      C1953   1.283       .  A
O1952     Zr1970   2.411       .  S
C1953      C2033   1.462       .  S
O1954      C1956   1.287       .  A
O1955      C1956   1.284       .  A
O1955     Zr1969   2.414       .  S
C1956      C2015   1.462       .  S
O1957      C1959   1.288       .  A
O1957     Zr1966   2.448       .  S
O1958      C1959   1.283       .  A
O1958     Zr1970   2.413       .  S
C1959      C2040   1.462       .  S
O1960      C1962   1.288       .  A
O1961      C1962   1.284       .  A
O1961     Zr1969   2.412       .  S
C1962      C2049   1.462       .  S
Zr1963     O1964   2.436       .  S
Zr1963     O1965   2.435       .  S
Zr1963     O1971   2.374       .  S
Zr1963     O1973   2.375       .  S
O1964      H1984   0.990       .  S
O1964      H1989   0.990       .  S
O1965      H1985   0.990       .  S
Zr1966     O1967   2.433       .  S
Zr1966     O1968   2.435       .  S
Zr1966     O1971   2.371       .  S
Zr1966     O1976   2.375       .  S
O1968      H1982   0.990       .  S
O1968      H1992   0.990       .  S
Zr1969     O1972   2.377       .  S
Zr1969     O1974   2.380       .  S
Zr1969     O1975   2.381       .  S
Zr1970     O1971   2.381       .  S
Zr1970     O1973   2.378       .  S
Zr1970     O1976   2.378       .  S
O1971      H1979   0.966       .  S
O1974      H1978   0.966       .  S
O1975      H1980   0.966       .  S
C1993      C1994   1.402       .  A
C1993      C1998   1.401       .  A
C1994      C1995   1.402       .  A
C1994      H1999   1.085       .  S
C1995      C1996   1.402       .  A
C1996      C1997   1.402       .  A
C1996      H2000   1.085       .  S
C1997      C1998   1.401       .  A
C1998      H2001   1.085       .  S
C2002      C2003   1.402       .  A
C2002      C2007   1.403       .  A
C2003      C2004   1.401       .  A
C2003      H2008   1.085       .  S
C2004      C2005   1.401       .  A
C2005      C2006   1.401       .  A
C2005      H2009   1.085       .  S
C2006      C2007   1.403       .  A
C2007      H2010   1.084       .  S
C2011      C2012   1.401       .  A
C2011      C2016   1.401       .  A
C2012      C2013   1.401       .  A
C2012      H2017   1.085       .  S
C2013      C2014   1.401       .  A
C2014      C2015   1.401       .  A
C2014      H2018   1.085       .  S
C2015      C2016   1.401       .  A
C2016      H2019   1.085       .  S
C2020      C2021   1.401       .  A
C2020      C2025   1.401       .  A
C2021      C2022   1.401       .  A
C2021      H2026   1.085       .  S
C2022      C2023   1.402       .  A
C2023      C2024   1.402       .  A
C2023      H2027   1.085       .  S
C2024      C2025   1.401       .  A
C2025      H2028   1.085       .  S
C2029      C2030   1.402       .  A
C2029      C2034   1.401       .  A
C2030      C2031   1.402       .  A
C2030      H2035   1.084       .  S
C2031      C2032   1.401       .  A
C2032      C2033   1.401       .  A
C2032      H2036   1.085       .  S
C2033      C2034   1.401       .  A
C2034      H2037   1.085       .  S
C2038      C2039   1.401       .  A
C2038      C2043   1.402       .  A
C2039      C2040   1.402       .  A
C2039      H2044   1.085       .  S
C2040      C2041   1.401       .  A
C2041      C2042   1.401       .  A
C2041      H2045   1.085       .  S
C2042      C2043   1.401       .  A
C2043      H2046   1.085       .  S
C2047      C2048   1.401       .  A
C2047      C2052   1.401       .  A
C2048      C2049   1.401       .  A
C2048      H2053   1.084       .  S
C2049      C2050   1.401       .  A
C2050      C2051   1.401       .  A
C2050      H2054   1.085       .  S
C2051      C2052   1.401       .  A
C2052      H2055   1.085       .  S
C2056      C2057   1.400       .  A
C2056      C2061   1.401       .  A
C2057      C2058   1.400       .  A
C2057      H2062   1.085       .  S
C2058      C2059   1.402       .  A
C2059      C2060   1.402       .  A
C2059      H2063   1.085       .  S
C2060      C2061   1.401       .  A
C2061      H2064   1.084       .  S
