geometry optimzed in LAMMPS
_audit_creation_date              2020-12-01 
_audit_creation_method            'lammps2cif' 
_symmetry_space_group_name_H-M    'P1' 
_symmetry_Int_Tables_number       1 
_symmetry_cell_setting            triclinic 
loop_ 
_symmetry_equiv_pos_as_xyz 
  x,y,z 
_cell_length_a                    45.94556027 
_cell_length_b                    45.5615938557578 
_cell_length_c                    32.90378085183622 
_cell_angle_alpha                 89.96951743373243 
_cell_angle_beta                  90.103742397272 
_cell_angle_gamma                 120.78971787683496 
loop_ 
_atom_site_label 
_atom_site_type_symbol 
_atom_site_fract_x 
_atom_site_fract_y 
_atom_site_fract_z 
_atom_site_charge 
Fe1        Fe  0.37167815  0.19413002  0.99453937     1.65800
Fe2        Fe  0.44507852  0.25637600  0.03518906     1.73200
Fe3        Fe  0.44585550  0.21111297  0.95497776     1.54400
O4          O  0.40999940  0.15872869  0.95182320    -0.81300
O5          O  0.47044621  0.29089425  0.99059521    -0.79600
O6          O  0.37150754  0.14888944  0.99902840    -0.83800
O7          O  0.36950222  0.19104668  0.93031653    -0.78600
O8          O  0.46844102  0.20028575  0.00058039    -0.80400
O9          O  0.40977603  0.27258174  0.03332216    -0.83200
C10         C  0.39105119  0.20465100  0.90147485     0.97600
C11         C  0.38594234  0.13843319  0.97513922     1.05000
O12         O  0.42072053  0.22058470  0.99504935    -1.12100
O13         O  0.42051057  0.22443217  0.08298137    -0.74600
O14         O  0.36788277  0.19396960  0.05846771    -0.78100
O15         O  0.42281611  0.22065453  0.90785358    -0.78700
C16         C  0.38886866  0.20488332  0.08809927     0.96500
O17         O  0.36919186  0.23782171  0.99007105    -0.76700
O18         O  0.48491333  0.24574656  0.04009579    -0.81900
C19         C  0.49254246  0.28986921  0.96899743     0.99100
C20         C  0.48948693  0.22257929  0.02485222     1.05100
O21         O  0.48740248  0.26198573  0.95341285    -0.77500
C22         C  0.38441134  0.26528774  0.01059482     1.03400
Fe23       Fe  0.37584771  0.19119166  0.49577734     1.65800
Fe24       Fe  0.44989626  0.21291553  0.45097748     1.73200
Fe25       Fe  0.44916326  0.24661375  0.54142549     1.54400
O26         O  0.41277605  0.26106823  0.54942062    -0.81300
O27         O  0.47636833  0.19974711  0.48873628    -0.79600
O28         O  0.37487215  0.23547561  0.49975184    -0.83800
O29         O  0.37210866  0.18526025  0.55976688    -0.78600
O30         O  0.47475214  0.28778679  0.50441372    -0.80400
O31         O  0.41472519  0.15992091  0.44391887    -0.83200
C32         C  0.39369979  0.18927534  0.58698285     0.97600
C33         C  0.38899387  0.25847984  0.52674776     1.05000
O34         O  0.42508590  0.21704780  0.49590980    -1.12100
O35         O  0.42507014  0.22625012  0.41015357    -0.74600
O36         O  0.37201032  0.19345825  0.43178177    -0.78100
O37         O  0.42525046  0.20676993  0.58090349    -0.78700
C38         C  0.39344697  0.21170015  0.40448775     0.96500
O39         O  0.37573973  0.14624977  0.49214996    -0.76700
O40         O  0.48916444  0.26492350  0.45421299    -0.81900
C41         C  0.49548639  0.21767325  0.51753443     0.99100
C42         C  0.49446596  0.29051314  0.47592325     1.05100
O43         O  0.48951761  0.23745687  0.53861240    -0.77500
C44         C  0.39093320  0.13788633  0.46665359     1.03400
Fe45       Fe  0.18847263  0.81854601  0.00040153     1.65800
Fe46       Fe  0.24231560  0.79895525  0.04425515     1.73200
Fe47       Fe  0.19491714  0.75222196  0.96533386     1.54400
O48         O  0.14367735  0.73791362  0.96726651    -0.81300
O49         O  0.27692932  0.80683067  0.00081180    -0.79600
O50         O  0.14065282  0.77714733  0.00489803    -0.83800
O51         O  0.18456574  0.81665791  0.93642452    -0.78600
O52         O  0.18464275  0.71835508  0.01119872    -0.80400
O53         O  0.26114259  0.85197184  0.04568479    -0.83200
C54         C  0.19227624  0.80254717  0.90829851     0.97600
C55         C  0.12686567  0.74870468  0.98652686     1.05000
O56         O  0.20850433  0.78990935  0.00286174    -1.12100
O57         O  0.20807382  0.79064452  0.08858133    -0.74600
O58         O  0.18888204  0.82344809  0.06459567    -0.78100
O59         O  0.20311462  0.78248616  0.91575732    -0.78700
C60         C  0.19325769  0.80743024  0.09370270     0.96500
O61         O  0.23523873  0.86190078  0.99516409    -0.76700
O62         O  0.23065716  0.74786300  0.04872265    -0.81900
C63         C  0.27371036  0.78378847  0.97641423     0.99100
C64         C  0.20724158  0.71965208  0.03422740     1.05100
O65         O  0.24504474  0.76162644  0.96115310    -0.77500
C66         C  0.25888201  0.87237056  0.02112398     1.03400
Fe67       Fe  0.19497127  0.81596823  0.50047316     1.65800
Fe68       Fe  0.25113710  0.79879070  0.54243392     1.73200
Fe69       Fe  0.20969213  0.75805021  0.45741861     1.54400
O70         O  0.15779819  0.74208102  0.45470019    -0.81300
O71         O  0.28803649  0.81050139  0.50072382    -0.79600
O72         O  0.14934737  0.77100323  0.50337484    -0.83800
O73         O  0.19140094  0.81648894  0.43659837    -0.78600
O74         O  0.19713896  0.72033308  0.49856060    -0.80400
O75         O  0.26851628  0.85176743  0.54540986    -0.83200
C76         C  0.20458060  0.80882377  0.40745225     0.97600
C77         C  0.13828721  0.74602233  0.47882776     1.05000
O78         O  0.21867703  0.79092842  0.50006728    -1.12100
O79         O  0.21568315  0.78747250  0.58690764    -0.74600
O80         O  0.19445371  0.81874497  0.56447208    -0.78100
O81         O  0.22118554  0.79397074  0.41346467    -0.78700
C82         C  0.19957933  0.80285455  0.59291593     0.96500
O83         O  0.24002745  0.86152100  0.49752968    -0.76700
O84         O  0.23933295  0.74710094  0.54283490    -0.81900
C85         C  0.28743804  0.78958808  0.47500855     0.99100
C86         C  0.21721702  0.71992216  0.52451706     1.05100
O87         O  0.26020031  0.76817721  0.45653470    -0.77500
C88         C  0.26493728  0.87208200  0.52180148     1.03400
Fe89       Fe  0.81952586  0.62943379  0.00766822     1.65800
Fe90       Fe  0.79806866  0.55372831  0.05040157     1.73200
Fe91       Fe  0.75062775  0.55714613  0.97468739     1.54400
O92         O  0.73998555  0.59687336  0.97677718    -0.81300
O93         O  0.80119003  0.52539056  0.00503106    -0.79600
O94         O  0.78056312  0.63831992  0.01460783    -0.83800
O95         O  0.81610677  0.63100839  0.94406281    -0.78600
O96         O  0.71881687  0.53611177  0.02269698    -0.80400
O97         O  0.85080993  0.58504635  0.04722671    -0.83200
C98         C  0.80150347  0.60849480  0.91638159     0.97600
C99         C  0.75227334  0.62488522  0.99650160     1.05000
O100        O  0.78930926  0.58027503  0.01096654    -1.12100
O101        O  0.79640708  0.58181907  0.09779112    -0.74600
O102        O  0.82630485  0.63427497  0.07114567    -0.78100
O103        O  0.78026112  0.57746068  0.92439824    -0.78700
C104        C  0.81357351  0.61412742  0.10150163     0.96500
O105        O  0.86042640  0.62365189  0.99971270    -0.76700
O106        O  0.74627212  0.51631322  0.05778979    -0.81900
C107        C  0.77697365  0.50573700  0.98184608     0.99100
C108        C  0.71875889  0.51340808  0.04473618     1.05100
O109        O  0.75527782  0.51326370  0.96904381    -0.77500
C110        C  0.87023826  0.60751711  0.02168039     1.03400
Fe111      Fe  0.82554156  0.63621204  0.50988416     1.65800
Fe112      Fe  0.80135630  0.55958479  0.55202625     1.73200
Fe113      Fe  0.76231071  0.56349547  0.46717299     1.54400
O114        O  0.74884121  0.60103507  0.46649158    -0.81300
O115        O  0.81004323  0.53192389  0.51067053    -0.79600
O116        O  0.78484184  0.64302250  0.50776626    -0.83800
O117        O  0.83052002  0.63983429  0.44658144    -0.78600
O118        O  0.72474962  0.53852278  0.50863457    -0.80400
O119        O  0.85429606  0.59243363  0.55720469    -0.83200
C120        C  0.81962179  0.61855956  0.41728656     0.97600
C121        C  0.75806122  0.62841712  0.48648700     1.05000
O122        O  0.79645839  0.58649851  0.50938405    -1.12100
O123        O  0.79239201  0.58570548  0.59551717    -0.74600
O124        O  0.82497118  0.63931131  0.57389683    -0.78100
O125        O  0.79687115  0.58740105  0.42154049    -0.78700
C126        C  0.80821569  0.61766184  0.60176956     0.96500
O127        O  0.86817907  0.63298894  0.51088466    -0.76700
O128        O  0.74953935  0.52127480  0.55251122    -0.81900
C129        C  0.78959977  0.51339156  0.48309802     0.99100
C130        C  0.72314702  0.51737314  0.53462966     1.05100
O131        O  0.77015908  0.52149097  0.46458328    -0.77500
C132        C  0.87619050  0.61670882  0.53510487     1.03400
Fe133      Fe  0.61575728  0.80588891  0.99740648     1.65800
Fe134      Fe  0.54278398  0.74561898  0.04082573     1.73200
Fe135      Fe  0.54103674  0.78458698  0.95485560     1.54400
O136        O  0.57651145  0.83716016  0.94778187    -0.81300
O137        O  0.51748764  0.70797554  0.99943062    -0.79600
O138        O  0.61487187  0.85035213  0.99655422    -0.83800
O139        O  0.61852592  0.80525366  0.93290643    -0.78600
O140        O  0.51573222  0.79681225  0.99561945    -0.80400
O141        O  0.57851025  0.72999688  0.04288583    -0.83200
C142        C  0.59654234  0.78694661  0.90593928     0.97600
C143        C  0.60050127  0.85903937  0.97026168     1.05000
O144        O  0.56656071  0.77896775  0.99823527    -1.12100
O145        O  0.56715946  0.78035639  0.08604685    -0.74600
O146        O  0.61973602  0.81002901  0.06141248    -0.78100
O147        O  0.56500776  0.77166899  0.91270444    -0.78700
C148        C  0.59872469  0.80030801  0.09088378     0.96500
O149        O  0.61888080  0.76258308  0.99834026    -0.76700
O150        O  0.50293747  0.75630743  0.04224331    -0.81900
C151        C  0.49589151  0.70696491  0.97492908     0.99100
C152        C  0.49672314  0.77719263  0.02355906     1.05100
O153        O  0.50056588  0.73351396  0.95627815    -0.77500
C154        C  0.60394896  0.73636127  0.02093875     1.03400
Fe155      Fe  0.62555902  0.80422397  0.50117423     1.65800
Fe156      Fe  0.55103220  0.74910185  0.54562152     1.73200
Fe157      Fe  0.55333642  0.79935175  0.46836036     1.54400
O158        O  0.59214383  0.85084869  0.46933838    -0.81300
O159        O  0.52233024  0.71618007  0.50098702    -0.79600
O160        O  0.63468578  0.85293299  0.50449536    -0.83800
O161        O  0.62543529  0.80507874  0.43728777    -0.78600
O162        O  0.53256787  0.81012504  0.51633958    -0.80400
O163        O  0.58189970  0.72748435  0.54338087    -0.83200
C164        C  0.60318432  0.79748937  0.40959496     0.97600
C165        C  0.62072000  0.86740414  0.48728046     1.05000
O166        O  0.57682150  0.78442482  0.50495233    -1.12100
O167        O  0.57944490  0.78055082  0.59235979    -0.74600
O168        O  0.63128978  0.80563199  0.56495279    -0.78100
O169        O  0.57322200  0.79051139  0.41722963    -0.78700
C170        C  0.61156015  0.79770350  0.59561259     0.96500
O171        O  0.62077711  0.75730358  0.49673276    -0.76700
O172        O  0.51387233  0.76302414  0.55286406    -0.81900
C173        C  0.50244655  0.72032738  0.47829553     0.99100
C174        C  0.51047998  0.78727346  0.53905730     1.05100
O175        O  0.51012431  0.74961131  0.46425479    -0.77500
C176        C  0.60509255  0.73122879  0.51911763     1.03400
Fe177      Fe  0.79945779  0.18325167  0.99180407     1.65800
Fe178      Fe  0.74157705  0.19749360  0.03629908     1.73200
Fe179      Fe  0.78462557  0.24309774  0.95465104     1.54400
O180        O  0.83606665  0.25885043  0.94952358    -0.81300
O181        O  0.70578585  0.18856013  0.99377543    -0.79600
O182        O  0.84517984  0.22803425  0.99455206    -0.83800
O183        O  0.79961952  0.18280645  0.92721568    -0.78600
O184        O  0.79753991  0.27854922  0.99913231    -0.80400
O185        O  0.72385645  0.14491492  0.03533213    -0.83200
C186        C  0.78366186  0.18998293  0.90086126     0.97600
C187        C  0.85583525  0.25409520  0.97205002     1.05000
O188        O  0.77532841  0.20793267  0.99456664    -1.12100
O189        O  0.77486286  0.20491499  0.08192134    -0.74600
O190        O  0.80243016  0.18075239  0.05565426    -0.78100
O191        O  0.77139752  0.20860993  0.90892267    -0.78700
C192        C  0.79383319  0.19239955  0.08575009     0.96500
O193        O  0.75490428  0.13689024  0.98960392    -0.76700
O194        O  0.75403461  0.24907651  0.04102152    -0.81900
C195        C  0.70719532  0.21108661  0.97008648     0.99100
C196        C  0.77656529  0.27725468  0.02500580     1.05100
O197        O  0.73496982  0.23405851  0.95455823    -0.77500
C198        C  0.72909644  0.12550882  0.01241086     1.03400
Fe199      Fe  0.80984150  0.18774754  0.49614303     1.65800
Fe200      Fe  0.75171380  0.20263695  0.53801086     1.73200
Fe201      Fe  0.79773224  0.24972289  0.45755492     1.54400
O202        O  0.84948154  0.26705365  0.45842703    -0.81300
O203        O  0.71743648  0.19410915  0.49385582    -0.79600
O204        O  0.85606244  0.23190922  0.49946003    -0.83800
O205        O  0.81143557  0.18696926  0.43238845    -0.78600
O206        O  0.80667957  0.28425917  0.50229183    -0.80400
O207        O  0.73350417  0.15003475  0.53729446    -0.83200
C208        C  0.80085909  0.19780076  0.40349917     0.97600
C209        C  0.86794315  0.25974617  0.47994934     1.05000
O210        O  0.78655196  0.21341364  0.49721797    -1.12100
O211        O  0.78390890  0.20964071  0.58504069    -0.74600
O212        O  0.81088896  0.18453305  0.55991565    -0.78100
O213        O  0.79026478  0.21829906  0.40915317    -0.78700
C214        C  0.80157630  0.19570585  0.58973869     0.96500
O215        O  0.76505791  0.14195829  0.49267241    -0.76700
O216        O  0.76301302  0.25365349  0.54328751    -0.81900
C217        C  0.71938422  0.21611518  0.46884502     0.99100
C218        C  0.78507471  0.28214182  0.52771481     1.05100
O219        O  0.74737821  0.23861338  0.45306625    -0.77500
C220        C  0.73873064  0.13065749  0.51444706     1.03400
Fe221      Fe  0.16721421  0.36752687  0.00719164     1.65800
Fe222      Fe  0.19064960  0.44204919  0.05375857     1.73200
Fe223      Fe  0.23361931  0.44093490  0.97154769     1.54400
O224        O  0.24599683  0.40245646  0.97002497    -0.81300
O225        O  0.18348794  0.47086307  0.01230679    -0.79600
O226        O  0.20703989  0.35928928  0.00748156    -0.83800
O227        O  0.16611545  0.36686004  0.94349579    -0.78600
O228        O  0.26807931  0.46257325  0.01719690    -0.80400
O229        O  0.13784400  0.40918770  0.05629693    -0.83200
C230        C  0.17977924  0.38916176  0.91548202     0.97600
C231        C  0.23470725  0.37378199  0.98796633     1.05000
O232        O  0.19707950  0.41675663  0.01035208    -1.12100
O233        O  0.19800437  0.41399133  0.09660249    -0.74600
O234        O  0.16452087  0.36175073  0.07107458    -0.78100
O235        O  0.20228094  0.42001383  0.92242604    -0.78700
C236        C  0.18116508  0.38171465  0.10047712     0.96500
O237        O  0.12554148  0.37252443  0.00560935    -0.76700
O238        O  0.24201697  0.48057085  0.05750041    -0.81900
C239        C  0.20511387  0.49031354  0.98623118     0.99100
C240        C  0.26894883  0.48408823  0.04200531     1.05100
O241        O  0.22611364  0.48331703  0.96968261    -0.77500
C242        C  0.11675211  0.38699241  0.03154305     1.03400
Fe243      Fe  0.18943825  0.37038572  0.50660122     1.65800
Fe244      Fe  0.19364461  0.44253824  0.54134930     1.73200
Fe245      Fe  0.24210952  0.44581665  0.46250818     1.54400
O246        O  0.26320745  0.41448256  0.46296078    -0.81300
O247        O  0.18276699  0.46510880  0.49512102    -0.79600
O248        O  0.23655697  0.37646922  0.51189524    -0.83800
O249        O  0.18931729  0.36520616  0.44281681    -0.78600
O250        O  0.27558865  0.47451629  0.50644884    -0.80400
O251        O  0.14272327  0.40309001  0.53911914    -0.83200
C252        C  0.19571159  0.38528580  0.41263980     0.97600
C253        C  0.26108803  0.39189535  0.48751825     1.05000
O254        O  0.20817693  0.41949130  0.50367471    -1.12100
O255        O  0.20243520  0.42144293  0.59140165    -0.74600
O256        O  0.18699509  0.36892119  0.57019054    -0.78100
O257        O  0.20984925  0.41745109  0.41676667    -0.78700
C258        C  0.19449683  0.39084643  0.59834893     0.96500
O259        O  0.14125398  0.36112392  0.50228168    -0.76700
O260        O  0.24317456  0.48580475  0.54623328    -0.81900
C261        C  0.20457724  0.48674312  0.47106015     0.99100
C262        C  0.27194762  0.49370890  0.53113420     1.05100
O263        O  0.22821905  0.48312836  0.45649952    -0.77500
C264        C  0.12669055  0.37481948  0.51988228     1.03400
C265        C  0.18744070  0.38414808  0.79980728     0.19100
C266        C  0.21134228  0.38264030  0.77468270    -0.19000
C267        C  0.20869845  0.38311773  0.73231474    -0.11300
C268        C  0.18248641  0.38596618  0.71438588     0.21300
C269        C  0.15803335  0.38643602  0.73949237    -0.20600
C270        C  0.16020882  0.38511039  0.78181290    -0.11500
C271        C  0.18251732  0.39308297  0.67039532    -0.15600
C272        C  0.19345960  0.38040712  0.64110811    -0.29500
C273        C  0.19425277  0.38975243  0.84403835    -0.03700
C274        C  0.17005836  0.37893321  0.87276873    -0.40300
H275        H  0.23276910  0.38231338  0.78791703     0.12500
H276        H  0.22830867  0.38341742  0.71378015     0.12100
H277        H  0.13783276  0.38899908  0.72633297     0.11600
H278        H  0.14182166  0.38705687  0.80036881     0.11800
H279        H  0.17271539  0.40941813  0.66166951     0.14500
H280        H  0.20038517  0.36152677  0.64834861     0.13300
H281        H  0.22068215  0.40388007  0.85342072     0.11000
H282        H  0.14355992  0.36206173  0.86508147     0.13000
C283        C  0.20738760  0.37973565  0.29758824     0.19100
C284        C  0.17591598  0.36276304  0.27744090    -0.19000
C285        C  0.17458401  0.36165010  0.23471149    -0.11300
C286        C  0.20473293  0.37743091  0.21179914     0.21300
C287        C  0.23584204  0.39193618  0.23226983    -0.20600
C288        C  0.23715403  0.39311231  0.27457623    -0.11500
C289        C  0.20548408  0.38493643  0.16775317    -0.15600
C290        C  0.17995989  0.36736400  0.14127336    -0.25900
C291        C  0.21092724  0.38909638  0.34124739    -0.03700
C292        C  0.18843772  0.37136859  0.37079122    -0.40300
H293        H  0.15254272  0.35265249  0.29439818     0.12500
H294        H  0.15018505  0.35077338  0.21986954     0.12100
H295        H  0.25941414  0.40427851  0.21541296     0.11600
H296        H  0.26169913  0.40626301  0.28936080     0.11800
H297        H  0.22828377  0.40755078  0.15679822     0.14500
H298        H  0.15776978  0.34330228  0.14994142     0.13300
H299        H  0.23422789  0.41235588  0.34972987     0.11000
H300        H  0.16632832  0.34646114  0.36473831     0.13000
C301        C  0.03227254  0.34628219  0.52411833     0.19100
C302        C  0.01289964  0.35988952  0.50958684    -0.19000
C303        C  0.97790830  0.33864207  0.50353991    -0.11300
C304        C  0.96181073  0.30349229  0.51246518     0.21300
C305        C  0.98111891  0.29037803  0.52852408    -0.20600
C306        C  0.01588002  0.31144403  0.53430244    -0.11500
C307        C  0.92490155  0.27957204  0.50732134    -0.15600
C308        C  0.90464175  0.28491582  0.48267862    -0.29500
C309        C  0.06963448  0.36817634  0.52756167    -0.03700
C310        C  0.08948646  0.35553401  0.51801175    -0.40300
H311        H  0.02496038  0.38675439  0.50207683     0.12500
H312        H  0.96365626  0.34990393  0.49235756     0.12100
H313        H  0.96929315  0.26358764  0.53636464     0.11600
H314        H  0.02993566  0.30038041  0.54684466     0.11800
H315        H  0.91403742  0.25573930  0.52416388     0.14500
H316        H  0.91480101  0.30796830  0.46453699     0.13300
H317        H  0.08082705  0.39494106  0.53562550     0.11000
H318        H  0.07787866  0.32954496  0.50657677     0.13000
C319        C  0.02201000  0.34382445  0.00370540     0.19100
C320        C  0.00440098  0.33514442  0.96660414    -0.19000
C321        C  0.96902697  0.31622736  0.96564927    -0.11300
C322        C  0.95041310  0.30531622  0.00196900     0.21300
C323        C  0.96796592  0.31459078  0.03916662    -0.20600
C324        C  0.00342764  0.33384282  0.04013056    -0.11500
C325        C  0.91311240  0.28169408  0.00199947    -0.15600
C326        C  0.89251425  0.27950243  0.97141685    -0.29500
C327        C  0.05936213  0.35940996  0.00272808    -0.03700
C328        C  0.08056244  0.37663904  0.03368883    -0.40300
H329        H  0.01812895  0.34212080  0.93811605     0.12500
H330        H  0.95651512  0.30884115  0.93640958     0.12100
H331        H  0.95419959  0.30616600  0.06757012     0.11600
H332        H  0.01609035  0.33930970  0.06927464     0.11800
H333        H  0.90212230  0.26553037  0.02858214     0.14500
H334        H  0.90240372  0.29718224  0.94605737     0.13300
H335        H  0.06990638  0.35580875  0.97490712     0.11000
H336        H  0.07137923  0.38277364  0.06086017     0.13000
C337        C  0.79327693  0.17887312  0.70540429     0.19100
C338        C  0.76432787  0.16007851  0.72948230    -0.19000
C339        C  0.76710178  0.15708633  0.77134429    -0.11300
C340        C  0.79902475  0.17384585  0.79053318     0.21300
C341        C  0.82815248  0.19084763  0.76609625    -0.20600
C342        C  0.82536278  0.19337214  0.72385264    -0.11500
C343        C  0.80239799  0.17678754  0.83579159    -0.15600
C344        C  0.77834961  0.17706429  0.85881571    -0.29500
C345        C  0.78847633  0.18534699  0.66232422    -0.03700
C346        C  0.81022569  0.19098100  0.63173516    -0.40300
H347        H  0.73931469  0.14826533  0.71593831     0.12500
H348        H  0.74404315  0.14240098  0.78864993     0.12100
H349        H  0.85306140  0.20377014  0.77994856     0.11600
H350        H  0.84817769  0.20822147  0.70615829     0.11800
H351        H  0.82665441  0.18387676  0.84953381     0.14500
H352        H  0.75562856  0.17376901  0.84434393     0.13300
H353        H  0.76470082  0.18398802  0.65511068     0.11000
H354        H  0.83271902  0.18940266  0.63696516     0.13000
C355        C  0.80695208  0.19816150  0.28671334     0.19100
C356        C  0.83027190  0.22131469  0.25837087    -0.19000
C357        C  0.82468249  0.21514307  0.21653025    -0.11300
C358        C  0.79509173  0.18614953  0.20231231     0.21300
C359        C  0.77229899  0.16249283  0.23063839    -0.20600
C360        C  0.77839972  0.16813817  0.27245583    -0.11500
C361        C  0.78465507  0.18312637  0.15907811    -0.15600
C362        C  0.80583620  0.19129345  0.12720030    -0.29500
C363        C  0.81022248  0.20828875  0.33015889    -0.03700
C364        C  0.80077209  0.18620967  0.36147907    -0.40300
H365        H  0.85221309  0.24483504  0.26863864     0.12500
H366        H  0.84227119  0.23420179  0.19538507     0.12100
H367        H  0.74906317  0.14026171  0.22036482     0.11600
H368        H  0.75959844  0.15019340  0.29352551     0.11800
H369        H  0.75811309  0.17428564  0.15328087     0.14500
H370        H  0.83173485  0.19730481  0.13165586     0.13300
H371        H  0.82056893  0.23524167  0.33662350     0.11000
H372        H  0.79327252  0.15972793  0.35626210     0.13000
C373        C  0.41912100  0.63709631  0.50284767     0.19100
C374        C  0.40639162  0.62006926  0.54010034    -0.19000
C375        C  0.37435280  0.59052134  0.54239516    -0.11300
C376        C  0.35455966  0.57729879  0.50723810     0.21300
C377        C  0.36695319  0.59469017  0.47018863    -0.20600
C378        C  0.39883144  0.62438363  0.46794646    -0.11500
C379        C  0.32288830  0.54358093  0.50655219    -0.15600
C380        C  0.30211100  0.52774729  0.53839935    -0.29500
C381        C  0.45435704  0.66658973  0.50172939    -0.03700
C382        C  0.46801387  0.69053030  0.47213858    -0.40300
H383        H  0.42163260  0.62927598  0.56746043     0.12500
H384        H  0.36585751  0.57733821  0.57118720     0.12100
H385        H  0.35222428  0.58472215  0.44256199     0.11600
H386        H  0.40789415  0.63639333  0.43865896     0.11800
H387        H  0.31590706  0.53101024  0.47704325     0.14500
H388        H  0.30594465  0.54036689  0.56754588     0.13300
H389        H  0.46968182  0.66958516  0.52839049     0.11000
H390        H  0.45296414  0.69035372  0.44660575     0.13000
C391        C  0.69242621  0.03457659  0.48597918     0.19100
C392        C  0.70408075  0.01425573  0.46891753    -0.19000
C393        C  0.68288858  0.97890006  0.46609432    -0.11300
C394        C  0.64929816  0.96288370  0.48009780     0.21300
C395        C  0.63702472  0.98318500  0.49563145    -0.20600
C396        C  0.65843683  0.01874190  0.49884794    -0.11500
C397        C  0.62725157  0.92504263  0.47907955    -0.15600
C398        C  0.64009853  0.90507003  0.48769556    -0.29500
C399        C  0.71653968  0.07208345  0.48843287    -0.03700
C400        C  0.71312024  0.09362853  0.51333969    -0.40300
H401        H  0.72989500  0.02575527  0.45808636     0.12500
H402        H  0.69282999  0.96408602  0.45277369     0.12100
H403        H  0.61109059  0.97144469  0.50607367     0.11600
H404        H  0.64816641  0.03361065  0.51098961     0.11800
H405        H  0.60030236  0.91366052  0.47329391     0.14500
H406        H  0.66649338  0.91700153  0.49688782     0.13300
H407        H  0.73903908  0.08226483  0.46954541     0.11000
H408        H  0.69150723  0.08418528  0.53348881     0.13000
C409        C  0.41739879  0.62342441  0.00907423     0.19100
C410        C  0.40137140  0.61340353  0.04716684    -0.19000
C411        C  0.37168259  0.58169136  0.05210939    -0.11300
C412        C  0.35786118  0.55925477  0.01901174     0.21300
C413        C  0.37393206  0.56934144  0.98098751    -0.20600
C414        C  0.40327519  0.60118745  0.97592667    -0.11500
C415        C  0.32727587  0.52481505  0.02236898    -0.15600
C416        C  0.30186256  0.51574643  0.04922667    -0.29500
C417        C  0.45027640  0.65582598  0.00612534    -0.03700
C418        C  0.46319745  0.67456175  0.97196945    -0.40300
H419        H  0.41209397  0.63003988  0.07328263     0.12500
H420        H  0.36024947  0.57449438  0.08194205     0.12100
H421        H  0.36379052  0.55240573  0.95504815     0.11600
H422        H  0.41542746  0.60779047  0.94645751     0.11800
H423        H  0.32393920  0.50708234  0.99823219     0.14500
H424        H  0.30336039  0.53364213  0.07205078     0.13300
H425        H  0.46425810  0.66547273  0.03444148     0.11000
H426        H  0.44871656  0.66784805  0.94393939     0.13000
C427        C  0.68304827  0.02858629  0.98788890     0.19100
C428        C  0.67835673  0.00921445  0.95259755    -0.19000
C429        C  0.65984121  0.97339425  0.95381990    -0.11300
C430        C  0.64609000  0.95621737  0.99065421     0.21300
C431        C  0.65054780  0.97553688  0.02580283    -0.20600
C432        C  0.66858415  0.01126582  0.02448529    -0.11500
C433        C  0.63039086  0.91859770  0.99460348    -0.15600
C434        C  0.61289141  0.89591244  0.96488100    -0.29500
C435        C  0.70548526  0.06647917  0.98619823    -0.03700
C436        C  0.70448308  0.08821079  0.01328412    -0.40300
H437        H  0.68961004  0.02186034  0.92411165     0.12500
H438        H  0.65763506  0.95927288  0.92639849     0.12100
H439        H  0.64063700  0.96289382  0.05466920     0.11600
H440        H  0.67236623  0.02508473  0.05257612     0.11800
H441        H  0.63317545  0.90912575  0.02381301     0.14500
H442        H  0.60748016  0.90440187  0.93653143     0.13300
H443        H  0.72369217  0.07688339  0.96147559     0.11000
H444        H  0.68514596  0.07864393  0.03667750     0.13000
C445        C  0.63206109  0.80369749  0.79699305     0.19100
C446        C  0.64258066  0.83203212  0.77117755    -0.19000
C447        C  0.63796890  0.82761671  0.72884419    -0.11300
C448        C  0.62266958  0.79470003  0.71176996     0.21300
C449        C  0.61465646  0.76690233  0.73725424    -0.20600
C450        C  0.61984929  0.77136131  0.77917198    -0.11500
C451        C  0.61058173  0.78745750  0.66896047    -0.15600
C452        C  0.62640208  0.80795891  0.63695207    -0.29500
C453        C  0.63059058  0.80773917  0.84199797    -0.03700
C454        C  0.60638208  0.78238763  0.86476842    -0.40300
H455        H  0.65243345  0.85730017  0.78392816     0.12500
H456        H  0.64427457  0.84954124  0.70993967     0.12100
H457        H  0.60327628  0.74135353  0.72478030     0.11600
H458        H  0.61299277  0.74909003  0.79763056     0.11800
H459        H  0.58765771  0.76300238  0.66336131     0.14500
H460        H  0.65093031  0.83104383  0.64079862     0.13300
H461        H  0.64595645  0.83296165  0.85533700     0.11000
H462        H  0.58854982  0.75836674  0.85032333     0.13000
C463        C  0.60522435  0.80493302  0.29255419     0.19100
C464        C  0.60568483  0.82934065  0.26598471    -0.19000
C465        C  0.60620735  0.82553129  0.22376209    -0.11300
C466        C  0.60530575  0.79665192  0.20728863     0.21300
C467        C  0.60557855  0.77260830  0.23385712    -0.20600
C468        C  0.60602907  0.77691618  0.27608739    -0.11500
C469        C  0.59868116  0.78829579  0.16334468    -0.15600
C470        C  0.61095820  0.81142569  0.13292397    -0.29500
C471        C  0.59937644  0.80696660  0.33663610    -0.03700
C472        C  0.61239350  0.79686153  0.36657982    -0.40300
H473        H  0.60461187  0.85089793  0.27795602     0.12500
H474        H  0.60515163  0.84403491  0.20409727     0.12100
H475        H  0.60431664  0.74984890  0.22187130     0.11600
H476        H  0.60491468  0.75728697  0.29574081     0.11800
H477        H  0.58226452  0.76145965  0.15565541     0.14500
H478        H  0.62977508  0.83797479  0.13889662     0.13300
H479        H  0.58378490  0.81766475  0.34481491     0.11000
H480        H  0.63052675  0.78905313  0.35955897     0.13000
C481        C  0.79092576  0.36875604  0.50814146     0.19100
C482        C  0.78372624  0.38098681  0.54359315    -0.19000
C483        C  0.78228323  0.41096784  0.54243781    -0.11300
C484        C  0.78768596  0.42922111  0.50593509     0.21300
C485        C  0.79397606  0.41649432  0.47031787    -0.20600
C486        C  0.79570299  0.38670308  0.47152970    -0.11500
C487        C  0.78975671  0.46287997  0.50745214    -0.15600
C488        C  0.78669969  0.47992274  0.47552900    -0.29500
C489        C  0.79517638  0.33845142  0.50766056    -0.03700
C490        C  0.78374079  0.31346728  0.53609954    -0.40300
H491        H  0.78030413  0.36822874  0.57244728     0.12500
H492        H  0.77762389  0.42036809  0.57044153     0.12100
H493        H  0.79887404  0.43010989  0.44183787     0.11600
H494        H  0.80134942  0.37791023  0.44372245     0.11800
H495        H  0.79362891  0.47426385  0.53750059     0.14500
H496        H  0.77971913  0.46845040  0.44555484     0.13300
H497        H  0.80677556  0.33551330  0.48040116     0.11000
H498        H  0.76975871  0.31393866  0.56235143     0.13000
C499        C  0.68537602  0.64694243  0.48121898     0.19100
C500        C  0.65526012  0.63430630  0.50355168    -0.19000
C501        C  0.63910890  0.65335417  0.50671020    -0.11300
C502        C  0.65265081  0.68510380  0.48686520     0.21300
C503        C  0.68187935  0.69670970  0.46305979    -0.20600
C504        C  0.69812516  0.67800827  0.46039219    -0.11500
C505        C  0.63791489  0.70749330  0.48965413    -0.15600
C506        C  0.61489196  0.70483928  0.51716937    -0.29500
C507        C  0.70402068  0.62826538  0.48064233    -0.03700
C508        C  0.73793763  0.64523130  0.48456041    -0.40300
H509        H  0.64482234  0.61020901  0.51950911     0.12500
H510        H  0.61623912  0.64313708  0.52461765     0.12100
H511        H  0.69266987  0.72079844  0.44698098     0.11600
H512        H  0.72084781  0.68796850  0.44212832     0.11800
H513        H  0.64821648  0.72884354  0.46854567     0.14500
H514        H  0.60404912  0.68418112  0.53911036     0.13300
H515        H  0.68982297  0.60052098  0.48002123     0.11000
H516        H  0.75148148  0.67268098  0.48951142     0.13000
C517        C  0.77858504  0.42331338  0.00186848     0.19100
C518        C  0.77661342  0.40689184  0.03884251    -0.19000
C519        C  0.77836579  0.37717179  0.03984086    -0.11300
C520        C  0.78246431  0.36335736  0.00372503     0.21300
C521        C  0.78408717  0.37959383  0.96661782    -0.20600
C522        C  0.78195492  0.40918808  0.96559493    -0.11500
C523        C  0.78653558  0.33302571  0.00326720    -0.15600
C524        C  0.77608803  0.30901174  0.03280500    -0.29500
C525        C  0.78089708  0.45695580  0.00352757    -0.03700
C526        C  0.77279896  0.47183886  0.97350526    -0.40300
H527        H  0.77442053  0.41755420  0.06727680     0.12500
H528        H  0.77765199  0.36586595  0.06901869     0.12100
H529        H  0.78743663  0.36955824  0.93832187     0.11600
H530        H  0.78429769  0.42163568  0.93672651     0.11800
H531        H  0.79672298  0.32906436  0.97538154     0.14500
H532        H  0.76319052  0.31044751  0.05961539     0.13300
H533        H  0.78924475  0.47017226  0.03252788     0.11000
H534        H  0.76134460  0.45851625  0.94532055     0.13000
C535        C  0.68577963  0.65242648  0.99102229     0.19100
C536        C  0.65271445  0.63886571  0.00589048    -0.19000
C537        C  0.63822697  0.65943485  0.00891507    -0.11300
C538        C  0.65651887  0.69387248  0.99649535     0.21300
C539        C  0.68913555  0.70692809  0.98041712    -0.20600
C540        C  0.70366019  0.68657030  0.97783511    -0.11500
C541        C  0.64247256  0.71691017  0.99798048    -0.15600
C542        C  0.61642794  0.71210409  0.02162600    -0.29500
C543        C  0.70147236  0.63088870  0.98926650    -0.03700
C544        C  0.73448090  0.64415281  0.99787815    -0.40300
H545        H  0.63830533  0.61249804  0.01572911     0.12500
H546        H  0.61264117  0.64810458  0.02034140     0.12100
H547        H  0.70358432  0.73313171  0.96997123     0.11600
H548        H  0.72882915  0.69752006  0.96508074     0.11800
H549        H  0.65502512  0.73967409  0.97914150     0.14500
H550        H  0.60399056  0.69023793  0.04174644     0.13300
H551        H  0.68557791  0.60378481  0.98278653     0.11000
H552        H  0.74935601  0.67059746  0.00779143     0.13000
C553        C  0.78600363  0.61172330  0.71514243     0.19100
C554        C  0.75609717  0.59069993  0.73665177    -0.19000
C555        C  0.75656683  0.58786663  0.77870047    -0.11300
C556        C  0.78693522  0.60607999  0.80056389     0.21300
C557        C  0.81689878  0.62851750  0.77951683    -0.20600
C558        C  0.81645032  0.63128180  0.73696683    -0.11500
C559        C  0.78586918  0.59821826  0.84446610    -0.15600
C560        C  0.80804238  0.61874958  0.87302090    -0.29500
C561        C  0.78468159  0.60777082  0.67032215    -0.03700
C562        C  0.80829558  0.62932956  0.64381041    -0.40300
H563        H  0.73236402  0.57517530  0.72064669     0.12500
H564        H  0.73311954  0.57045941  0.79412914     0.12100
H565        H  0.84083099  0.64251558  0.79545844     0.11600
H566        H  0.84012082  0.64712202  0.72123034     0.11800
H567        H  0.76395319  0.57425937  0.85415226     0.14500
H568        H  0.82907004  0.64383753  0.86509255     0.13300
H569        H  0.76343166  0.58413619  0.65858597     0.11000
H570        H  0.82877172  0.65419531  0.65349646     0.13000
C571        C  0.82133906  0.63014107  0.30196012     0.19100
C572        C  0.80373449  0.63907108  0.27446254    -0.19000
C573        C  0.80659657  0.63612106  0.23250774    -0.11300
C574        C  0.82656176  0.62337485  0.21737675     0.21300
C575        C  0.84531554  0.61586486  0.24480795    -0.20600
C576        C  0.84308504  0.61959637  0.28671373    -0.11500
C577        C  0.82432451  0.61287469  0.17426592    -0.15600
C578        C  0.81919434  0.62867450  0.14286399    -0.29500
C579        C  0.81206246  0.62624907  0.34559821    -0.03700
C580        C  0.83326093  0.63021293  0.37614479    -0.40300
H581        H  0.78651230  0.64684672  0.28555139     0.12500
H582        H  0.79132459  0.64148989  0.21220632     0.12100
H583        H  0.86060739  0.60568760  0.23385236     0.11600
H584        H  0.85641029  0.61181211  0.30713274     0.11800
H585        H  0.82668287  0.59072762  0.16814418     0.14500
H586        H  0.81984217  0.65259942  0.14740630     0.13300
H587        H  0.78591570  0.61813816  0.35283822     0.11000
H588        H  0.86009022  0.64064872  0.37069972     0.13000
C589        C  0.37127270  0.79428191  0.50413987     0.19100
C590        C  0.38513141  0.79512189  0.54266332    -0.19000
C591        C  0.41539238  0.79491812  0.54652894    -0.11300
C592        C  0.43267141  0.79430029  0.51176464     0.21300
C593        C  0.41866960  0.79311685  0.47327772    -0.20600
C594        C  0.38819099  0.79287316  0.46941580    -0.11500
C595        C  0.46641543  0.79733135  0.51376682    -0.15600
C596        C  0.47824806  0.78681722  0.54482160    -0.29500
C597        C  0.34045674  0.79711889  0.50199509    -0.03700
C598        C  0.31885336  0.78827620  0.47007947    -0.40300
H599        H  0.37270916  0.79644187  0.56996820     0.12500
H600        H  0.42575683  0.79646272  0.57654954     0.12100
H601        H  0.43165661  0.79284287  0.44596574     0.11600
H602        H  0.37867466  0.79276864  0.43929050     0.11800
H603        H  0.48165184  0.80685669  0.48635158     0.14500
H604        H  0.46254885  0.77408322  0.57109541     0.13300
H605        H  0.33432817  0.80572202  0.52977017     0.11000
H606        H  0.32223969  0.77685747  0.44293775     0.13000
C607        C  0.20348812  0.63063780  0.49952208     0.19100
C608        C  0.19942008  0.61427090  0.46183533    -0.19000
C609        C  0.19753589  0.58264592  0.45944921    -0.11300
C610        C  0.19918107  0.56647543  0.49492021     0.21300
C611        C  0.20309690  0.58272813  0.53258416    -0.20600
C612        C  0.20548877  0.61457846  0.53492622    -0.11500
C613        C  0.19511744  0.53196816  0.49453605    -0.15600
C614        C  0.20450884  0.51881059  0.46388341    -0.29500
C615        C  0.20358183  0.66334343  0.50032136    -0.03700
C616        C  0.21613824  0.68704002  0.53043048    -0.40300
H617        H  0.19745594  0.62592871  0.43405915     0.12500
H618        H  0.19383332  0.57051463  0.43007904     0.12100
H619        H  0.20414691  0.57060455  0.56042739     0.11600
H620        H  0.20791179  0.62598222  0.56449496     0.11800
H621        H  0.18645983  0.51769283  0.52281355     0.14500
H622        H  0.21641707  0.53370394  0.43675572     0.13300
H623        H  0.19400115  0.66894416  0.47296394     0.11000
H624        H  0.22833627  0.68378889  0.55687636     0.13000
C625        C  0.04309023  0.69668134  0.50726677     0.19100
C626        C  0.02542029  0.68918895  0.54427503    -0.19000
C627        C  0.98992531  0.67081900  0.54506499    -0.11300
C628        C  0.97134394  0.65993057  0.50864781     0.21300
C629        C  0.98899121  0.66697151  0.47170941    -0.20600
C630        C  0.02443976  0.68494192  0.47094118    -0.11500
C631        C  0.93402304  0.64495902  0.50744630    -0.15600
C632        C  0.91247907  0.62721884  0.53795687    -0.29500
C633        C  0.08061595  0.71940824  0.50761688    -0.03700
C634        C  0.10136561  0.72109282  0.47753743    -0.40300
H635        H  0.03915738  0.69829373  0.57266458     0.12500
H636        H  0.97720432  0.66664269  0.57398323     0.12100
H637        H  0.97526003  0.65929816  0.44318412     0.11600
H638        H  0.03700684  0.69090914  0.44176171     0.11800
H639        H  0.92374870  0.64901795  0.47962526     0.14500
H640        H  0.92141835  0.62047214  0.56492548     0.13300
H641        H  0.09168840  0.73552840  0.53422636     0.11000
H642        H  0.09138634  0.70370107  0.45190154     0.13000
C643        C  0.41641107  0.78143640  0.00163350     0.19100
C644        C  0.39947545  0.77811224  0.96472343    -0.19000
C645        C  0.36988021  0.77968686  0.96353168    -0.11300
C646        C  0.35665948  0.78489590  0.99939716     0.21300
C647        C  0.37323955  0.78756929  0.03646656    -0.20600
C648        C  0.40274458  0.78573666  0.03768509    -0.11500
C649        C  0.32697195  0.78966332  0.99960152    -0.15600
C650        C  0.30381310  0.78064206  0.96945847    -0.29500
C651        C  0.44949265  0.78300220  0.00019937    -0.03700
C652        C  0.46477576  0.77680022  0.03145033    -0.40300
H653        H  0.40959899  0.77494755  0.93643853     0.12500
H654        H  0.35825232  0.77801084  0.93436066     0.12100
H655        H  0.36364786  0.79172314  0.06459812     0.11600
H656        H  0.41537112  0.78895693  0.06654366     0.11800
H657        H  0.32316454  0.80003416  0.02751487     0.14500
H658        H  0.30478472  0.76751669  0.94248579     0.13300
H659        H  0.46149915  0.78838173  0.97048812     0.11000
H660        H  0.45244226  0.76833257  0.06075299     0.13000
C661        C  0.20180022  0.57203310  0.00699245     0.19100
C662        C  0.20293671  0.58764827  0.04431277    -0.19000
C663        C  0.20296439  0.61833059  0.04574888    -0.11300
C664        C  0.20149210  0.63399440  0.00972346     0.21300
C665        C  0.20082049  0.61864157  0.97228210    -0.20600
C666        C  0.20118785  0.58806102  0.97083835    -0.11500
C667        C  0.19851261  0.66502110  0.00977190    -0.15600
C668        C  0.20822610  0.68798671  0.04043820    -0.29500
C669        C  0.19845966  0.53782532  0.00795941    -0.03700
C670        C  0.20739600  0.52351331  0.97813183    -0.40300
H671        H  0.20318730  0.57568591  0.07264931     0.12500
H672        H  0.20287731  0.62893715  0.07513146     0.12100
H673        H  0.19948804  0.63010271  0.94403213     0.11600
H674        H  0.19971614  0.57645336  0.94161675     0.11800
H675        H  0.18926943  0.67015144  0.98179642     0.14500
H676        H  0.22055102  0.68566442  0.06735375     0.13300
H677        H  0.18948764  0.52415617  0.03656778     0.11000
H678        H  0.21918214  0.53738539  0.95038370     0.13000
C679        C  0.96268503  0.64893906  0.98475768     0.19100
C680        C  0.98246996  0.67859821  0.96179867    -0.19000
C681        C  0.01744714  0.69307711  0.95937659    -0.11300
C682        C  0.03346055  0.67797753  0.97952677     0.21300
C683        C  0.01367235  0.64724906  0.00063312    -0.20600
C684        C  0.97849220  0.63287861  0.00353328    -0.11500
C685        C  0.07088996  0.69514181  0.97975339    -0.15600
C686        C  0.08962828  0.72888815  0.98665993    -0.29500
C687        C  0.92594706  0.63637353  0.98832484    -0.03700
C688        C  0.90567505  0.61564180  0.01800467    -0.40300
H689        H  0.97093254  0.69120805  0.94651905     0.12500
H690        H  0.03210262  0.71637649  0.94207591     0.12100
H691        H  0.02556127  0.63502132  0.01596173     0.11600
H692        H  0.96396502  0.60941903  0.02046580     0.11800
H693        H  0.08290956  0.68004993  0.97625997     0.14500
H694        H  0.07691853  0.74285931  0.99384373     0.13300
H695        H  0.91555565  0.64664232  0.96664882     0.11000
H696        H  0.91517971  0.60527709  0.04059189     0.13000
C697        C  0.17512443  0.78343827  0.79313517     0.19100
C698        C  0.16336902  0.75266515  0.77181546    -0.19000
C699        C  0.16523405  0.75230019  0.72953996    -0.11300
C700        C  0.17839233  0.78260781  0.70713775     0.21300
C701        C  0.18805185  0.81330951  0.72797521    -0.20600
C702        C  0.18652782  0.81375679  0.77072199    -0.11500
C703        C  0.18589382  0.78147233  0.66335026    -0.15600
C704        C  0.18776595  0.80354632  0.63473821    -0.29500
C705        C  0.17829053  0.78231281  0.83817414    -0.03700
C706        C  0.18732785  0.80811651  0.86491527    -0.40300
H707        H  0.15422178  0.72883935  0.78806704     0.12500
H708        H  0.15759358  0.72831280  0.71434831     0.12100
H709        H  0.19875777  0.83722561  0.71161581     0.11600
H710        H  0.19590648  0.83799276  0.78596515     0.11800
H711        H  0.19041703  0.76118753  0.65430807     0.14500
H712        H  0.18120096  0.82265795  0.64217342     0.13300
H713        H  0.17362643  0.75805529  0.85029399     0.11000
H714        H  0.19004224  0.83222053  0.85557732     0.13000
C715        C  0.18443991  0.79105548  0.29329636     0.19100
C716        C  0.19325814  0.82096340  0.27125979    -0.19000
C717        C  0.18917858  0.81959044  0.22876067    -0.11300
C718        C  0.17608649  0.78825344  0.20797221     0.21300
C719        C  0.16535875  0.75837213  0.23060712    -0.20600
C720        C  0.16954910  0.75976218  0.27260528    -0.11500
C721        C  0.17830320  0.78572646  0.16318069    -0.15600
C722        C  0.18269881  0.80956874  0.13564462    -0.29500
C723        C  0.19353123  0.79110375  0.33662025    -0.03700
C724        C  0.19806194  0.81448370  0.36488791    -0.40300
H725        H  0.20516655  0.84554041  0.28631885     0.12500
H726        H  0.19826161  0.84321894  0.21221798     0.12100
H727        H  0.15527717  0.73391970  0.21547612     0.11600
H728        H  0.16239226  0.73631796  0.28883318     0.11800
H729        H  0.17831630  0.76316583  0.15233286     0.14500
H730        H  0.18066970  0.83144365  0.14428296     0.13300
H731        H  0.19520204  0.76916955  0.34632645     0.11000
H732        H  0.19364202  0.83514244  0.35771895     0.13000
C733        C  0.63374328  0.44143720  0.51062741     0.19100
C734        C  0.61743737  0.42940499  0.47285535    -0.19000
C735        C  0.58720349  0.39787296  0.46962571    -0.11300
C736        C  0.57236926  0.37786660  0.50436553     0.21300
C737        C  0.58845953  0.39006401  0.54220315    -0.20600
C738        C  0.61891732  0.42138360  0.54536150    -0.11500
C739        C  0.53931769  0.34516741  0.50323827    -0.15600
C740        C  0.52594865  0.32418220  0.47069440    -0.29500
C741        C  0.66558806  0.47531538  0.51210782    -0.03700
C742        C  0.68983137  0.48584710  0.54117161    -0.40300
H743        H  0.62818758  0.44450458  0.44560724     0.12500
H744        H  0.57515748  0.38968436  0.44019127     0.12100
H745        H  0.57732668  0.37528154  0.56956189     0.11600
H746        H  0.63028407  0.43005258  0.57504028     0.11800
H747        H  0.52608014  0.33688152  0.53212627     0.14500
H748        H  0.53970276  0.33000802  0.44222655     0.13300
H749        H  0.67053238  0.49146949  0.48560609     0.11000
H750        H  0.68696403  0.46942148  0.56661497     0.13000
C751        C  0.57406809  0.21166836  0.49368109     0.19100
C752        C  0.59004339  0.21391855  0.45644965    -0.19000
C753        C  0.62012420  0.21336332  0.45512931    -0.11300
C754        C  0.63467321  0.21030334  0.49117833     0.21300
C755        C  0.61892272  0.20846043  0.52847862    -0.20600
C756        C  0.58895206  0.20924884  0.52982135    -0.11500
C757        C  0.66502810  0.20694607  0.49143246    -0.15600
C758        C  0.68836404  0.21736294  0.46152159    -0.29500
C759        C  0.54099329  0.20986004  0.49282879    -0.03700
C760        C  0.52701151  0.21723787  0.52429253    -0.40300
H761        H  0.57891222  0.21560260  0.42815965     0.12500
H762        H  0.63117805  0.21419336  0.42583345     0.12100
H763        H  0.62960114  0.20589496  0.55668825     0.11600
H764        H  0.57704445  0.20681001  0.55896945     0.11800
H765        H  0.66933753  0.19688437  0.51930704     0.14500
H766        H  0.68671525  0.23030007  0.43473191     0.13300
H767        H  0.52815892  0.20368614  0.46357744     0.11000
H768        H  0.54023676  0.22629343  0.55303386     0.13000
C769        C  0.34931991  0.04136484  0.49269161     0.19100
C770        C  0.34305911  0.02342043  0.52954246    -0.19000
C771        C  0.32590953  0.98759789  0.53024564    -0.11300
C772        C  0.31416904  0.96876113  0.49396343     0.21300
C773        C  0.32102557  0.98674079  0.45704501    -0.20600
C774        C  0.33856940  0.02258555  0.45630604    -0.11500
C775        C  0.29185118  0.93072934  0.49349401    -0.15600
C776        C  0.29004642  0.90941981  0.52337434    -0.29500
C777        C  0.36362852  0.07908858  0.49400809    -0.03700
C778        C  0.37995073  0.10106094  0.46308588    -0.40300
H779        H  0.35070540  0.03719024  0.55809491     0.12500
H780        H  0.32053898  0.97483389  0.55936419     0.12100
H781        H  0.31198305  0.97294117  0.42864430     0.11600
H782        H  0.34219723  0.03536513  0.42742075     0.11800
H783        H  0.27587213  0.91970637  0.46684281     0.14500
H784        H  0.30719377  0.91927110  0.54913048     0.13300
H785        H  0.36050388  0.08935040  0.52241111     0.11000
H786        H  0.38582755  0.09221178  0.43540475     0.13000
C787        C  0.34434281  0.30950682  0.50776979     0.19100
C788        C  0.33698977  0.32162141  0.47231162    -0.19000
C789        C  0.32046789  0.34016522  0.47437099    -0.11300
C790        C  0.31058481  0.34668498  0.51210915     0.21300
C791        C  0.31834938  0.33496596  0.54766466    -0.20600
C792        C  0.33525217  0.31672373  0.54562163    -0.11500
C793        C  0.28884082  0.36196552  0.51507297    -0.15600
C794        C  0.28720010  0.38215494  0.48630586    -0.29500
C795        C  0.35852680  0.28682873  0.50365788    -0.03700
C796        C  0.37695417  0.28270271  0.53252838    -0.40300
H797        H  0.34335318  0.31600509  0.44277156     0.12500
H798        H  0.31405377  0.34781313  0.44622382     0.12100
H799        H  0.31052097  0.33918138  0.57705703     0.11600
H800        H  0.33973003  0.30702096  0.57349592     0.11800
H801        H  0.27269204  0.35538413  0.54169787     0.14500
H802        H  0.30457398  0.39093844  0.46078752     0.13300
H803        H  0.35397361  0.27327293  0.47499790     0.11000
H804        H  0.38400317  0.29777769  0.56020392     0.13000
C805        C  0.37525120  0.18772699  0.69938156     0.19100
C806        C  0.35411794  0.19266480  0.72583978    -0.19000
C807        C  0.36077824  0.19695530  0.76781268    -0.11300
C808        C  0.38915153  0.19694014  0.78401568     0.21300
C809        C  0.41002198  0.19173013  0.75756000    -0.20600
C810        C  0.40321136  0.18711259  0.71593443    -0.11500
C811        C  0.39942404  0.20412781  0.82755352    -0.15600
C812        C  0.37873009  0.20015958  0.85884497    -0.29500
C813        C  0.37070685  0.18815169  0.65446953    -0.03700
C814        C  0.38311576  0.17477965  0.62798692    -0.40300
H815        H  0.33285865  0.19400073  0.71385522     0.12500
H816        H  0.34446966  0.20155749  0.78707560     0.12100
H817        H  0.43223534  0.19192561  0.76905214     0.11600
H818        H  0.42102237  0.18482789  0.69670793     0.11800
H819        H  0.42543218  0.21139692  0.83439683     0.14500
H820        H  0.35206857  0.19075469  0.85355536     0.13300
H821        H  0.36063427  0.20353191  0.64287428     0.11000
H822        H  0.39361515  0.15972567  0.63918869     0.13000
C823        C  0.37244808  0.19900243  0.29051029     0.19100
C824        C  0.35953932  0.17111049  0.26349680    -0.19000
C825        C  0.36448449  0.17615597  0.22136244    -0.11300
C826        C  0.38272131  0.20936223  0.20524703     0.21300
C827        C  0.39448850  0.23720528  0.23195449    -0.20600
C828        C  0.38929993  0.23222078  0.27391227    -0.11500
C829        C  0.39304363  0.21626211  0.16173246    -0.15600
C830        C  0.37606836  0.19524388  0.13033844    -0.29500
C831        C  0.37158491  0.19234516  0.33530615    -0.03700
C832        C  0.38230604  0.21667085  0.36427604    -0.40300
H833        H  0.34671190  0.14525228  0.27516000     0.12500
H834        H  0.35552696  0.15408140  0.20179364     0.12100
H835        H  0.40870898  0.26308271  0.22038250     0.11600
H836        H  0.40012916  0.25469813  0.29292053     0.11800
H837        H  0.41564787  0.24070815  0.15510615     0.14500
H838        H  0.35191304  0.17199681  0.13532879     0.13300
H839        H  0.36522088  0.16683091  0.34456914     0.11000
H840        H  0.38975845  0.24267671  0.35655534     0.13000
C841        C  0.57208362  0.37236300  0.00490977     0.19100
C842        C  0.58660888  0.38269325  0.04383416    -0.19000
C843        C  0.61630964  0.41431854  0.04972189    -0.11300
C844        C  0.63173358  0.43645329  0.01672377     0.21300
C845        C  0.61725558  0.42601757  0.97782016    -0.20600
C846        C  0.58789601  0.39422424  0.97184656    -0.11500
C847        C  0.66206815  0.47111488  0.02118482    -0.15600
C848        C  0.68617503  0.48091819  0.05025869    -0.29500
C849        C  0.53878980  0.34032613  0.00095373    -0.03700
C850        C  0.52626902  0.32131179  0.96681097    -0.40300
H851        H  0.57460537  0.36641085  0.06992104     0.12500
H852        H  0.62644406  0.42176173  0.08015443     0.12100
H853        H  0.62859057  0.44271396  0.95189144     0.11600
H854        H  0.57698260  0.38743589  0.94169004     0.11800
H855        H  0.66638059  0.48866416  0.99638419     0.14500
H856        H  0.68420561  0.46315514  0.07358370     0.13300
H857        H  0.52379069  0.33133828  0.02861746     0.11000
H858        H  0.54149264  0.32715322  0.93952918     0.13000
C859        C  0.62371321  0.20673396  0.99490822     0.19100
C860        C  0.60693741  0.20691739  0.95938421    -0.19000
C861        C  0.57794496  0.20941384  0.96192518    -0.11300
C862        C  0.56544167  0.21219849  0.99984891     0.21300
C863        C  0.58260248  0.21265328  0.03533249    -0.20600
C864        C  0.61134967  0.20967367  0.03280680    -0.11500
C865        C  0.53302316  0.21174238  0.00068053    -0.15600
C866        C  0.52165797  0.22317374  0.03118156    -0.29500
C867        C  0.65301902  0.20168568  0.99406347    -0.03700
C868        C  0.67611267  0.21245836  0.96393910    -0.40300
H869        H  0.61545854  0.20399441  0.92981103     0.12500
H870        H  0.56490872  0.20865652  0.93412798     0.12100
H871        H  0.57327810  0.21407046  0.06500510     0.11600
H872        H  0.62383814  0.20935296  0.06060131     0.11800
H873        H  0.51796810  0.20238338  0.97304833     0.14500
H874        H  0.53704276  0.23553422  0.05783473     0.13300
H875        H  0.65729788  0.19104161  0.02143956     0.11000
H876        H  0.67434891  0.22615257  0.93795826     0.13000
C877        C  0.33953624  0.04137452  0.99929123     0.19100
C878        C  0.32715377  0.02197503  0.03506189    -0.19000
C879        C  0.31165732  0.98629699  0.03416707    -0.11300
C880        C  0.30777359  0.96915552  0.99721954     0.21300
C881        C  0.32050532  0.98853486  0.96154554    -0.20600
C882        C  0.33640070  0.02421984  0.96250547    -0.11500
C883        C  0.28715688  0.93124865  0.99402457    -0.15600
C884        C  0.28349207  0.90958550  0.02423438    -0.29500
C885        C  0.35302096  0.07891404  0.00107958    -0.03700
C886        C  0.37420671  0.10147027  0.97324646    -0.40300
H887        H  0.32886991  0.03444051  0.06373679     0.12500
H888        H  0.30134955  0.97215379  0.06207795     0.12100
H889        H  0.31739044  0.97592077  0.93260426     0.11600
H890        H  0.34476541  0.03801072  0.93410008     0.11800
H891        H  0.27403140  0.92074031  0.96542075     0.14500
H892        H  0.29819129  0.91929252  0.05199682     0.13300
H893        H  0.34542742  0.08840220  0.02681447     0.11000
H894        H  0.38388509  0.09294399  0.94873842     0.13000
C895        C  0.30229846  0.34819668  0.97442817     0.19100
C896        C  0.33575314  0.36240596  0.98835320    -0.19000
C897        C  0.35070164  0.34224212  0.99146805    -0.11300
C898        C  0.33251412  0.30753763  0.98003722     0.21300
C899        C  0.29971892  0.29399716  0.96409720    -0.20600
C900        C  0.28470532  0.31396012  0.96150004    -0.11500
C901        C  0.34661590  0.28454186  0.98331151    -0.15600
C902        C  0.37231597  0.28986489  0.00812383    -0.29500
C903        C  0.28567304  0.36894575  0.97447466    -0.03700
C904        C  0.25310950  0.35507594  0.98576675    -0.40300
H905        H  0.34998716  0.38887248  0.99789094     0.12500
H906        H  0.37643641  0.35398951  0.00259493     0.12100
H907        H  0.28534568  0.26759650  0.95428529     0.11600
H908        H  0.25922579  0.30253419  0.94944925     0.11800
H909        H  0.33412199  0.26119834  0.96541787     0.14500
H910        H  0.38464301  0.31238461  0.02731391     0.13300
H911        H  0.30077468  0.39610667  0.96796834     0.11000
H912        H  0.23922874  0.32855795  0.99552291     0.13000
loop_ 
_geom_bond_atom_site_label_1 
_geom_bond_atom_site_label_2 
_geom_bond_distance 
_geom_bond_site_symmetry_2 
_ccdc_geom_bond_type 
Fe1          O17   2.057       .  S
Fe1           O7   2.117       .  S
Fe1          O14   2.111   1_556  S
Fe1           O6   2.062       .  S
Fe1          O12   1.936       .  S
Fe2           O5   2.028   1_554  S
Fe2           O9   2.099       .  S
Fe2          O13   2.046       .  S
Fe2          O18   2.125       .  S
Fe2          O12   1.945   1_554  S
Fe3          O21   2.119       .  S
Fe3           O8   2.022   1_556  S
Fe3          O15   2.044       .  S
Fe3           O4   2.097       .  S
Fe3          O12   1.943       .  S
O4           C11   1.273       .  A
O5           C19   1.261       .  A
O6           C11   1.269       .  A
O7           C10   1.280       .  A
O8           C20   1.264       .  A
O9           C22   1.276       .  A
C10          O15   1.271       .  A
C10         C812   1.486       .  S
C11         C886   1.484       .  S
O13          C16   1.269       .  A
O14          C16   1.278       .  A
C16         C830   1.486       .  S
O17          C22   1.271   1_556  A
O18          C20   1.280       .  A
C19          O21   1.275       .  A
C19         C850   1.479       .  S
C20         C866   1.479       .  S
C22         C902   1.485       .  S
Fe23         O39   2.049       .  S
Fe23         O29   2.119       .  S
Fe23         O36   2.120       .  S
Fe23         O28   2.045       .  S
Fe23         O34   1.944       .  S
Fe24         O27   2.031       .  S
Fe24         O31   2.121       .  S
Fe24         O35   2.044       .  S
Fe24         O40   2.122       .  S
Fe24         O34   1.936       .  S
Fe25         O43   2.101       .  S
Fe25         O30   2.032       .  S
Fe25         O37   2.037       .  S
Fe25         O26   2.104       .  S
Fe25         O34   1.937       .  S
O26          C33   1.277       .  A
O27          C41   1.265       .  A
O28          C33   1.269       .  A
O29          C32   1.277       .  A
O30          C42   1.266       .  A
O31          C44   1.281       .  A
C32          O37   1.263       .  A
C32         C814   1.472       .  S
C33         C796   1.478       .  S
O35          C38   1.264       .  A
O36          C38   1.277       .  A
C38         C832   1.476       .  S
O39          C44   1.269       .  A
O40          C42   1.280       .  A
C41          O43   1.274       .  A
C41         C760   1.475       .  S
C42         C740   1.485       .  S
C44         C778   1.489       .  S
Fe45         O61   2.050   1_554  S
Fe45         O51   2.110   1_554  S
Fe45         O58   2.123       .  S
Fe45         O50   2.041       .  S
Fe45         O56   1.945       .  S
Fe46         O49   2.031       .  S
Fe46         O53   2.109       .  S
Fe46         O57   2.036       .  S
Fe46         O62   2.110       .  S
Fe46         O56   1.943       .  S
Fe47         O65   2.121       .  S
Fe47         O52   2.034   1_556  S
Fe47         O59   2.043       .  S
Fe47         O48   2.098       .  S
Fe47         O56   1.940   1_556  S
O48          C55   1.277       .  A
O49          C63   1.269   1_554  A
O50          C55   1.267   1_554  A
O51          C54   1.277       .  A
O52          C64   1.261       .  A
O53          C66   1.275       .  A
C54          O59   1.268       .  A
C54         C706   1.487       .  S
C55         C686   1.470       .  S
O57          C60   1.269       .  A
O58          C60   1.280       .  A
C60         C722   1.483       .  S
O61          C66   1.266   1_556  A
O62          C64   1.273       .  A
C63          O65   1.282       .  A
C63         C650   1.480       .  S
C64         C668   1.480       .  S
C66         C884   1.484       .  S
Fe67         O83   2.050       .  S
Fe67         O73   2.109       .  S
Fe67         O80   2.111       .  S
Fe67         O72   2.050       .  S
Fe67         O78   1.939       .  S
Fe68         O71   2.031       .  S
Fe68         O75   2.121       .  S
Fe68         O79   2.052       .  S
Fe68         O84   2.129       .  S
Fe68         O78   1.934       .  S
Fe69         O87   2.122       .  S
Fe69         O74   2.026       .  S
Fe69         O81   2.041       .  S
Fe69         O70   2.108       .  S
Fe69         O78   1.937       .  S
O70          C77   1.278       .  A
O71          C85   1.264       .  A
O72          C77   1.270       .  A
O73          C76   1.276       .  A
O74          C86   1.263       .  A
O75          C88   1.281       .  A
C76          O81   1.268       .  A
C76         C724   1.482       .  S
C77         C634   1.482       .  S
O79          C82   1.269       .  A
O80          C82   1.276       .  A
C82         C704   1.486       .  S
O83          C88   1.270       .  A
O84          C86   1.280       .  A
C85          O87   1.279       .  A
C85         C598   1.484       .  S
C86         C616   1.486       .  S
C88         C776   1.489       .  S
Fe89        O105   2.044   1_554  S
Fe89         O95   2.102   1_554  S
Fe89        O102   2.106       .  S
Fe89         O94   2.041       .  S
Fe89        O100   1.942       .  S
Fe90         O93   2.027       .  S
Fe90         O97   2.093       .  S
Fe90        O101   2.044       .  S
Fe90        O106   2.116       .  S
Fe90        O100   1.950       .  S
Fe91        O109   2.125       .  S
Fe91         O96   2.030   1_556  S
Fe91        O103   2.041       .  S
Fe91         O92   2.104       .  S
Fe91        O100   1.942   1_556  S
O92          C99   1.277       .  A
O93         C107   1.265   1_554  A
O94          C99   1.266   1_554  A
O95          C98   1.275       .  A
O96         C108   1.262       .  A
O97         C110   1.272       .  A
C98         O103   1.269       .  A
C98         C560   1.484       .  S
C99         C544   1.475       .  S
O101        C104   1.271       .  A
O102        C104   1.278       .  A
C104        C578   1.477       .  S
O105        C110   1.266   1_556  A
O106        C108   1.275       .  A
C107        O109   1.279       .  A
C107        C526   1.481       .  S
C108        C848   1.482       .  S
C110        C688   1.479       .  S
Fe111       O127   2.038       .  S
Fe111       O117   2.093       .  S
Fe111       O124   2.112       .  S
Fe111       O116   2.047       .  S
Fe111       O122   1.954       .  S
Fe112       O115   2.029       .  S
Fe112       O119   2.111       .  S
Fe112       O123   2.035       .  S
Fe112       O128   2.112       .  S
Fe112       O122   1.950       .  S
Fe113       O131   2.123       .  S
Fe113       O118   2.032       .  S
Fe113       O125   2.049       .  S
Fe113       O114   2.096       .  S
Fe113       O122   1.949       .  S
O114        C121   1.276       .  A
O115        C129   1.267       .  A
O116        C121   1.267       .  A
O117        C120   1.273       .  A
O118        C130   1.262       .  A
O119        C132   1.275       .  A
C120        O125   1.268       .  A
C120        C580   1.473       .  S
C121        C508   1.473       .  S
O123        C126   1.268       .  A
O124        C126   1.277       .  A
C126        C562   1.482       .  S
O127        C132   1.264       .  A
O128        C130   1.275       .  A
C129        O131   1.281       .  A
C129        C488   1.482       .  S
C130        C742   1.484       .  S
C132        C632   1.483       .  S
Fe133       O149   2.050       .  S
Fe133       O139   2.127       .  S
Fe133       O146   2.114   1_556  S
Fe133       O138   2.047       .  S
Fe133       O144   1.943       .  S
Fe134       O137   2.026   1_554  S
Fe134       O141   2.098       .  S
Fe134       O145   2.038       .  S
Fe134       O150   2.122       .  S
Fe134       O144   1.942   1_554  S
Fe135       O153   2.108       .  S
Fe135       O140   2.032       .  S
Fe135       O147   2.038       .  S
Fe135       O136   2.110       .  S
Fe135       O144   1.944       .  S
O136        C143   1.276       .  A
O137        C151   1.260       .  A
O138        C143   1.267       .  A
O139        C142   1.280       .  A
O140        C152   1.269   1_556  A
O141        C154   1.276       .  A
C142        O147   1.266       .  A
C142        C454   1.477       .  S
C143        C434   1.483       .  S
O145        C148   1.267       .  A
O146        C148   1.278       .  A
C148        C470   1.481       .  S
O149        C154   1.270   1_556  A
O150        C152   1.281       .  A
C151        O153   1.273       .  A
C151        C418   1.475       .  S
C152        C652   1.482       .  S
C154        C542   1.483       .  S
Fe155       O171   2.039       .  S
Fe155       O161   2.102       .  S
Fe155       O168   2.111       .  S
Fe155       O160   2.040       .  S
Fe155       O166   1.943       .  S
Fe156       O159   2.029       .  S
Fe156       O163   2.102       .  S
Fe156       O167   2.050       .  S
Fe156       O172   2.118       .  S
Fe156       O166   1.959       .  S
Fe157       O175   2.119       .  S
Fe157       O162   2.032       .  S
Fe157       O169   2.052       .  S
Fe157       O158   2.098       .  S
Fe157       O166   1.955       .  S
O158        C165   1.275       .  A
O159        C173   1.266       .  A
O160        C165   1.264       .  A
O161        C164   1.277       .  A
O162        C174   1.262       .  A
O163        C176   1.272       .  A
C164        O169   1.270       .  A
C164        C472   1.482       .  S
C165        C398   1.474       .  S
O167        C170   1.272       .  A
O168        C170   1.280       .  A
C170        C452   1.485       .  S
O171        C176   1.264       .  A
O172        C174   1.275       .  A
C173        O175   1.279       .  A
C173        C382   1.479       .  S
C174        C596   1.483       .  S
C176        C506   1.486       .  S
Fe177       O193   2.057       .  S
Fe177       O183   2.125       .  S
Fe177       O190   2.112   1_556  S
Fe177       O182   2.048       .  S
Fe177       O188   1.944       .  S
Fe178       O181   2.033   1_554  S
Fe178       O185   2.099       .  S
Fe178       O189   2.042       .  S
Fe178       O194   2.121       .  S
Fe178       O188   1.941   1_554  S
Fe179       O197   2.101       .  S
Fe179       O184   2.030       .  S
Fe179       O191   2.031       .  S
Fe179       O180   2.096       .  S
Fe179       O188   1.943       .  S
O180        C187   1.273       .  A
O181        C195   1.263       .  A
O182        C187   1.266       .  A
O183        C186   1.280       .  A
O184        C196   1.266   1_556  A
O185        C198   1.276       .  A
C186        O191   1.264       .  A
C186        C344   1.474       .  S
C187        C326   1.478       .  S
O189        C192   1.268       .  A
O190        C192   1.279       .  A
C192        C362   1.481       .  S
O193        C198   1.269   1_556  A
O194        C196   1.280       .  A
C195        O197   1.273       .  A
C195        C868   1.475       .  S
C196        C524   1.481       .  S
C198        C436   1.483       .  S
Fe199       O215   2.050       .  S
Fe199       O205   2.100       .  S
Fe199       O212   2.106       .  S
Fe199       O204   2.048       .  S
Fe199       O210   1.948       .  S
Fe200       O203   2.027       .  S
Fe200       O207   2.096       .  S
Fe200       O211   2.048       .  S
Fe200       O216   2.114       .  S
Fe200       O210   1.951       .  S
Fe201       O219   2.105       .  S
Fe201       O206   2.037       .  S
Fe201       O213   2.050       .  S
Fe201       O202   2.087       .  S
Fe201       O210   1.958       .  S
O202        C209   1.272       .  A
O203        C217   1.264       .  A
O204        C209   1.269       .  A
O205        C208   1.275       .  A
O206        C218   1.265       .  A
O207        C220   1.273       .  A
C208        O213   1.269       .  A
C208        C364   1.480       .  S
C209        C308   1.479       .  S
O211        C214   1.270       .  A
O212        C214   1.277       .  A
C214        C346   1.483       .  S
O215        C220   1.268       .  A
O216        C218   1.276       .  A
C217        O219   1.275       .  A
C217        C758   1.475       .  S
C218        C490   1.486       .  S
C220        C400   1.483       .  S
Fe221       O237   2.041       .  S
Fe221       O227   2.096   1_554  S
Fe221       O234   2.114       .  S
Fe221       O226   2.047       .  S
Fe221       O232   1.943       .  S
Fe222       O225   2.032       .  S
Fe222       O229   2.102       .  S
Fe222       O233   2.043       .  S
Fe222       O238   2.103       .  S
Fe222       O232   1.951       .  S
Fe223       O241   2.129       .  S
Fe223       O228   2.032   1_556  S
Fe223       O235   2.045       .  S
Fe223       O224   2.102       .  S
Fe223       O232   1.943   1_556  S
O224        C231   1.277       .  A
O225        C239   1.269   1_554  A
O226        C231   1.268   1_554  A
O227        C230   1.274       .  A
O228        C240   1.261       .  A
O229        C242   1.273       .  A
C230        O235   1.268       .  A
C230        C274   1.476       .  S
C231        C904   1.478       .  S
O233        C236   1.270       .  A
O234        C236   1.278       .  A
C236        C290   1.481       .  S
O237        C242   1.265       .  A
O238        C240   1.271       .  A
C239        O241   1.283       .  A
C239        C670   1.486       .  S
C240        C416   1.480       .  S
C242        C328   1.480       .  S
Fe243       O259   2.035       .  S
Fe243       O249   2.112       .  S
Fe243       O256   2.095       .  S
Fe243       O248   2.044       .  S
Fe243       O254   1.945       .  S
Fe244       O247   2.035       .  S
Fe244       O251   2.099       .  S
Fe244       O255   2.048       .  S
Fe244       O260   2.121       .  S
Fe244       O254   1.951       .  S
Fe245       O263   2.109       .  S
Fe245       O250   2.025       .  S
Fe245       O257   2.041       .  S
Fe245       O246   2.096       .  S
Fe245       O254   1.948       .  S
O246        C253   1.272       .  A
O247        C261   1.262       .  A
O248        C253   1.265       .  A
O249        C252   1.278       .  A
O250        C262   1.266       .  A
O251        C264   1.277       .  A
C252        O257   1.270       .  A
C252        C292   1.481       .  S
C253        C794   1.478       .  S
O255        C258   1.268       .  A
O256        C258   1.274       .  A
C258        C272   1.478       .  S
O259        C264   1.266       .  A
O260        C262   1.280       .  A
C261        O263   1.273       .  A
C261        C614   1.481       .  S
C262        C380   1.477       .  S
C264        C310   1.470       .  S
C265        C273   1.483       .  S
C265        C266   1.405       .  A
C265        C270   1.404       .  A
C266        C267   1.400       .  A
C266        H275   1.083       .  S
C267        C268   1.405       .  A
C267        H276   1.083       .  S
C268        C271   1.483       .  S
C268        C269   1.405       .  A
C269        C270   1.399       .  A
C269        H277   1.083       .  S
C270        H278   1.083       .  S
C271        H279   1.087       .  S
C271        C272   1.347       .  D
C272        H280   1.085       .  S
C273        H281   1.088       .  S
C273        C274   1.347       .  D
C274        H282   1.085       .  S
C283        C291   1.484       .  S
C283        C284   1.407       .  A
C283        C288   1.402       .  A
C284        C285   1.407       .  A
C284        H293   1.083       .  S
C285        C286   1.410       .  A
C285        H294   1.082       .  S
C286        C289   1.485       .  S
C286        C287   1.401       .  A
C287        C288   1.393       .  A
C287        H295   1.084       .  S
C288        H296   1.084       .  S
C289        H297   1.089       .  S
C289        C290   1.346       .  D
C290        H298   1.086       .  S
C291        H299   1.088       .  S
C291        C292   1.347       .  D
C292        H300   1.086       .  S
C301        C309   1.484       .  S
C301        C302   1.403       .  A
C301        C306   1.406       .  A
C302        C303   1.403   1_455  A
C302        H311   1.083       .  S
C303        C304   1.409       .  A
C303        H312   1.082       .  S
C304        C307   1.483       .  S
C304        C305   1.401       .  A
C305        C306   1.392   1_655  A
C305        H313   1.083       .  S
C306        H314   1.083       .  S
C307        H315   1.087       .  S
C307        C308   1.346       .  D
C308        H316   1.084       .  S
C309        H317   1.086       .  S
C309        C310   1.342       .  D
C310        H318   1.087       .  S
C319        C327   1.484       .  S
C319        C320   1.404   1_554  A
C319        C324   1.406       .  A
C320        C321   1.397   1_455  A
C320        H329   1.084       .  S
C321        C322   1.405   1_556  A
C321        H330   1.081       .  S
C322        C325   1.486       .  S
C322        C323   1.405       .  A
C323        C324   1.401   1_655  A
C323        H331   1.084       .  S
C324        H332   1.082       .  S
C325        H333   1.087       .  S
C325        C326   1.348   1_554  D
C326        H334   1.085       .  S
C327        H335   1.088   1_554  S
C327        C328   1.348       .  D
C328        H336   1.085       .  S
C337        C345   1.487       .  S
C337        C338   1.403       .  A
C337        C342   1.407       .  A
C338        C339   1.396       .  A
C338        H347   1.084       .  S
C339        C340   1.408       .  A
C339        H348   1.082       .  S
C340        C343   1.496       .  S
C340        C341   1.407       .  A
C341        C342   1.406       .  A
C341        H349   1.083       .  S
C342        H350   1.082       .  S
C343        H351   1.087       .  S
C343        C344   1.346       .  D
C344        H352   1.085       .  S
C345        H353   1.088       .  S
C345        C346   1.348       .  D
C346        H354   1.085       .  S
C355        C363   1.486       .  S
C355        C356   1.406       .  A
C355        C360   1.405       .  A
C356        C357   1.402       .  A
C356        H365   1.083       .  S
C357        C358   1.404       .  A
C357        H366   1.084       .  S
C358        C361   1.484       .  S
C358        C359   1.405       .  A
C359        C360   1.401       .  A
C359        H367   1.083       .  S
C360        H368   1.083       .  S
C361        H369   1.087       .  S
C361        C362   1.348       .  D
C362        H370   1.085       .  S
C363        H371   1.087       .  S
C363        C364   1.348       .  D
C364        H372   1.086       .  S
C373        C381   1.484       .  S
C373        C374   1.408       .  A
C373        C378   1.403       .  A
C374        C375   1.399       .  A
C374        H383   1.084       .  S
C375        C376   1.401       .  A
C375        H384   1.082       .  S
C376        C379   1.480       .  S
C376        C377   1.406       .  A
C377        C378   1.397       .  A
C377        H385   1.084       .  S
C378        H386   1.081       .  S
C379        H387   1.089       .  S
C379        C380   1.352       .  D
C380        H388   1.085       .  S
C381        H389   1.088       .  S
C381        C382   1.353       .  D
C382        H390   1.085       .  S
C391        C399   1.489       .  S
C391        C392   1.403       .  A
C391        C396   1.410       .  A
C392        C393   1.395   1_545  A
C392        H401   1.083       .  S
C393        C394   1.406       .  A
C393        H402   1.083       .  S
C394        C397   1.487       .  S
C394        C395   1.404       .  A
C395        C396   1.404   1_565  A
C395        H403   1.083       .  S
C396        H404   1.081       .  S
C397        H405   1.086       .  S
C397        C398   1.344       .  D
C398        H406   1.087       .  S
C399        H407   1.087       .  S
C399        C400   1.349       .  D
C400        H408   1.084       .  S
C409        C417   1.479       .  S
C409        C410   1.407       .  A
C409        C414   1.401   1_554  A
C410        C411   1.399       .  A
C410        H419   1.083       .  S
C411        C412   1.403       .  A
C411        H420   1.083       .  S
C412        C415   1.481       .  S
C412        C413   1.406   1_554  A
C413        C414   1.396       .  A
C413        H421   1.083       .  S
C414        H422   1.083       .  S
C415        H423   1.086   1_554  S
C415        C416   1.351       .  D
C416        H424   1.085       .  S
C417        H425   1.088       .  S
C417        C418   1.352   1_554  D
C418        H426   1.085       .  S
C427        C435   1.491       .  S
C427        C428   1.407       .  A
C427        C432   1.407   1_556  A
C428        C429   1.403   1_545  A
C428        H437   1.084       .  S
C429        C430   1.406       .  A
C429        H438   1.083       .  S
C430        C433   1.486       .  S
C430        C431   1.404   1_556  A
C431        C432   1.399   1_565  A
C431        H439   1.083       .  S
C432        H440   1.081       .  S
C433        H441   1.087   1_556  S
C433        C434   1.349       .  D
C434        H442   1.086       .  S
C435        H443   1.087       .  S
C435        C436   1.351   1_556  D
C436        H444   1.085       .  S
C445        C453   1.498       .  S
C445        C446   1.408       .  A
C445        C450   1.408       .  A
C446        C447   1.408       .  A
C446        H455   1.083       .  S
C447        C448   1.407       .  A
C447        H456   1.083       .  S
C448        C451   1.487       .  S
C448        C449   1.402       .  A
C449        C450   1.396       .  A
C449        H457   1.083       .  S
C450        H458   1.082       .  S
C451        H459   1.088       .  S
C451        C452   1.348       .  D
C452        H460   1.086       .  S
C453        H461   1.087       .  S
C453        C454   1.349       .  D
C454        H462   1.084       .  S
C463        C471   1.487       .  S
C463        C464   1.406       .  A
C463        C468   1.405       .  A
C464        C465   1.402       .  A
C464        H473   1.083       .  S
C465        C466   1.404       .  A
C465        H474   1.083       .  S
C466        C469   1.486       .  S
C466        C467   1.406       .  A
C467        C468   1.402       .  A
C467        H475   1.083       .  S
C468        H476   1.083       .  S
C469        H477   1.088       .  S
C469        C470   1.350       .  D
C470        H478   1.085       .  S
C471        H479   1.087       .  S
C471        C472   1.349       .  D
C472        H480   1.085       .  S
C481        C489   1.490       .  S
C481        C482   1.404       .  A
C481        C486   1.409       .  A
C482        C483   1.402       .  A
C482        H491   1.082       .  S
C483        C484   1.409       .  A
C483        H492   1.083       .  S
C484        C487   1.488       .  S
C484        C485   1.402       .  A
C485        C486   1.400       .  A
C485        H493   1.082       .  S
C486        H494   1.083       .  S
C487        H495   1.088       .  S
C487        C488   1.355       .  D
C488        H496   1.085       .  S
C489        H497   1.087       .  S
C489        C490   1.355       .  D
C490        H498   1.084       .  S
C499        C507   1.485       .  S
C499        C500   1.405       .  A
C499        C504   1.403       .  A
C500        C501   1.405       .  A
C500        H509   1.083       .  S
C501        C502   1.409       .  A
C501        H510   1.081       .  S
C502        C505   1.488       .  S
C502        C503   1.405       .  A
C503        C504   1.394       .  A
C503        H511   1.083       .  S
C504        H512   1.083       .  S
C505        H513   1.087       .  S
C505        C506   1.351       .  D
C506        H514   1.084       .  S
C507        H515   1.086       .  S
C507        C508   1.345       .  D
C508        H516   1.087       .  S
C517        C525   1.482       .  S
C517        C518   1.406       .  A
C517        C522   1.402   1_554  A
C518        C519   1.397       .  A
C518        H527   1.083       .  S
C519        C520   1.402       .  A
C519        H528   1.082       .  S
C520        C523   1.487       .  S
C520        C521   1.409   1_554  A
C521        C522   1.401       .  A
C521        H529   1.083       .  S
C522        H530   1.083       .  S
C523        H531   1.087   1_554  S
C523        C524   1.355       .  D
C524        H532   1.084       .  S
C525        H533   1.088       .  S
C525        C526   1.353   1_554  D
C526        H534   1.085       .  S
C535        C543   1.487       .  S
C535        C536   1.404   1_556  A
C535        C540   1.405       .  A
C536        C537   1.404       .  A
C536        H545   1.083       .  S
C537        C538   1.409   1_554  A
C537        H546   1.082       .  S
C538        C541   1.488       .  S
C538        C539   1.403       .  A
C539        C540   1.395       .  A
C539        H547   1.083       .  S
C540        H548   1.083       .  S
C541        H549   1.087       .  S
C541        C542   1.349   1_556  D
C542        H550   1.084       .  S
C543        H551   1.086       .  S
C543        C544   1.344       .  D
C544        H552   1.087   1_556  S
C553        C561   1.483       .  S
C553        C554   1.401       .  A
C553        C558   1.410       .  A
C554        C555   1.391       .  A
C554        H563   1.084       .  S
C555        C556   1.402       .  A
C555        H564   1.084       .  S
C556        C559   1.483       .  S
C556        C557   1.408       .  A
C557        C558   1.407       .  A
C557        H565   1.082       .  S
C558        H566   1.082       .  S
C559        H567   1.087       .  S
C559        C560   1.348       .  D
C560        H568   1.085       .  S
C561        H569   1.088       .  S
C561        C562   1.347       .  D
C562        H570   1.085       .  S
C571        C579   1.483       .  S
C571        C572   1.404       .  A
C571        C576   1.405       .  A
C572        C573   1.400       .  A
C572        H581   1.083       .  S
C573        C574   1.405       .  A
C573        H582   1.083       .  S
C574        C577   1.484       .  S
C574        C575   1.405       .  A
C575        C576   1.400       .  A
C575        H583   1.083       .  S
C576        H584   1.083       .  S
C577        H585   1.088       .  S
C577        C578   1.347       .  D
C578        H586   1.086       .  S
C579        H587   1.088       .  S
C579        C580   1.345       .  D
C580        H588   1.086       .  S
C589        C597   1.488       .  S
C589        C590   1.409       .  A
C589        C594   1.403       .  A
C590        C591   1.401       .  A
C590        H599   1.083       .  S
C591        C592   1.402       .  A
C591        H600   1.082       .  S
C592        C595   1.486       .  S
C592        C593   1.408       .  A
C593        C594   1.400       .  A
C593        H601   1.083       .  S
C594        H602   1.082       .  S
C595        H603   1.088       .  S
C595        C596   1.354       .  D
C596        H604   1.085       .  S
C597        H605   1.087       .  S
C597        C598   1.356       .  D
C598        H606   1.085       .  S
C607        C615   1.488       .  S
C607        C608   1.409       .  A
C607        C612   1.403       .  A
C608        C609   1.401       .  A
C608        H617   1.083       .  S
C609        C610   1.402       .  A
C609        H618   1.083       .  S
C610        C613   1.485       .  S
C610        C611   1.407       .  A
C611        C612   1.400       .  A
C611        H619   1.083       .  S
C612        H620   1.082       .  S
C613        H621   1.088       .  S
C613        C614   1.353       .  D
C614        H622   1.085       .  S
C615        H623   1.087       .  S
C615        C616   1.357       .  D
C616        H624   1.085       .  S
C625        C633   1.489       .  S
C625        C626   1.406       .  A
C625        C630   1.406       .  A
C626        C627   1.401   1_455  A
C626        H635   1.083       .  S
C627        C628   1.405       .  A
C627        H636   1.082       .  S
C628        C631   1.486       .  S
C628        C629   1.405       .  A
C629        C630   1.399   1_655  A
C629        H637   1.083       .  S
C630        H638   1.082       .  S
C631        H639   1.088       .  S
C631        C632   1.351       .  D
C632        H640   1.085       .  S
C633        H641   1.087       .  S
C633        C634   1.350       .  D
C634        H642   1.085       .  S
C643        C651   1.486       .  S
C643        C644   1.407   1_554  A
C643        C648   1.403       .  A
C644        C645   1.398       .  A
C644        H653   1.083       .  S
C645        C646   1.403       .  A
C645        H654   1.081       .  S
C646        C649   1.487       .  S
C646        C647   1.409   1_556  A
C647        C648   1.401       .  A
C647        H655   1.083       .  S
C648        H656   1.082       .  S
C649        H657   1.088   1_556  S
C649        C650   1.354       .  D
C650        H658   1.084       .  S
C651        H659   1.088   1_554  S
C651        C652   1.353       .  D
C652        H660   1.085       .  S
C661        C669   1.486       .  S
C661        C662   1.407       .  A
C661        C666   1.403   1_554  A
C662        C663   1.398       .  A
C662        H671   1.083       .  S
C663        C664   1.403       .  A
C663        H672   1.082       .  S
C664        C667   1.488       .  S
C664        C665   1.409   1_554  A
C665        C666   1.403       .  A
C665        H673   1.083       .  S
C666        H674   1.083       .  S
C667        H675   1.087   1_554  S
C667        C668   1.354       .  D
C668        H676   1.084       .  S
C669        H677   1.087       .  S
C669        C670   1.354   1_554  D
C670        H678   1.085       .  S
C679        C687   1.484       .  S
C679        C680   1.402       .  A
C679        C684   1.409   1_556  A
C680        C681   1.393   1_655  A
C680        H689   1.084       .  S
C681        C682   1.404       .  A
C681        H690   1.083       .  S
C682        C685   1.481       .  S
C682        C683   1.403   1_556  A
C683        C684   1.403   1_455  A
C683        H691   1.083       .  S
C684        H692   1.081       .  S
C685        H693   1.086       .  S
C685        C686   1.342       .  D
C686        H694   1.088       .  S
C687        H695   1.087       .  S
C687        C688   1.347   1_556  D
C688        H696   1.084       .  S
C697        C705   1.492       .  S
C697        C698   1.405       .  A
C697        C702   1.409       .  A
C698        C699   1.394       .  A
C698        H707   1.084       .  S
C699        C700   1.401       .  A
C699        H708   1.084       .  S
C700        C703   1.489       .  S
C700        C701   1.410       .  A
C701        C702   1.409       .  A
C701        H709   1.082       .  S
C702        H710   1.081       .  S
C703        H711   1.088       .  S
C703        C704   1.348       .  D
C704        H712   1.086       .  S
C705        H713   1.088       .  S
C705        C706   1.352       .  D
C706        H714   1.084       .  S
C715        C723   1.484       .  S
C715        C716   1.408       .  A
C715        C720   1.402       .  A
C716        C717   1.408       .  A
C716        H725   1.082       .  S
C717        C718   1.410       .  A
C717        H726   1.082       .  S
C718        C721   1.486       .  S
C718        C719   1.402       .  A
C719        C720   1.392       .  A
C719        H727   1.084       .  S
C720        H728   1.084       .  S
C721        H729   1.089       .  S
C721        C722   1.348       .  D
C722        H730   1.086       .  S
C723        H731   1.088       .  S
C723        C724   1.348       .  D
C724        H732   1.085       .  S
C733        C741   1.488       .  S
C733        C734   1.408       .  A
C733        C738   1.403       .  A
C734        C735   1.400       .  A
C734        H743   1.084       .  S
C735        C736   1.403       .  A
C735        H744   1.082       .  S
C736        C739   1.487       .  S
C736        C737   1.408       .  A
C737        C738   1.400       .  A
C737        H745   1.083       .  S
C738        H746   1.082       .  S
C739        H747   1.087       .  S
C739        C740   1.355       .  D
C740        H748   1.085       .  S
C741        H749   1.087       .  S
C741        C742   1.355       .  D
C742        H750   1.085       .  S
C751        C759   1.479       .  S
C751        C752   1.406       .  A
C751        C756   1.403       .  A
C752        C753   1.396       .  A
C752        H761   1.083       .  S
C753        C754   1.402       .  A
C753        H762   1.082       .  S
C754        C757   1.479       .  S
C754        C755   1.406       .  A
C755        C756   1.397       .  A
C755        H763   1.083       .  S
C756        H764   1.082       .  S
C757        H765   1.087       .  S
C757        C758   1.351       .  D
C758        H766   1.084       .  S
C759        H767   1.087       .  S
C759        C760   1.350       .  D
C760        H768   1.084       .  S
C769        C777   1.494       .  S
C769        C770   1.407       .  A
C769        C774   1.406       .  A
C770        C771   1.403   1_545  A
C770        H779   1.083       .  S
C771        C772   1.406       .  A
C771        H780   1.082       .  S
C772        C775   1.495       .  S
C772        C773   1.408       .  A
C773        C774   1.403   1_565  A
C773        H781   1.083       .  S
C774        H782   1.082       .  S
C775        H783   1.087       .  S
C775        C776   1.354       .  D
C776        H784   1.085       .  S
C777        H785   1.087       .  S
C777        C778   1.354       .  D
C778        H786   1.085       .  S
C787        C795   1.483       .  S
C787        C788   1.403       .  A
C787        C792   1.406       .  A
C788        C789   1.397       .  A
C788        H797   1.083       .  S
C789        C790   1.406       .  A
C789        H798   1.082       .  S
C790        C793   1.485       .  S
C790        C791   1.405       .  A
C791        C792   1.400       .  A
C791        H799   1.083       .  S
C792        H800   1.082       .  S
C793        H801   1.087       .  S
C793        C794   1.348       .  D
C794        H802   1.085       .  S
C795        H803   1.087       .  S
C795        C796   1.347       .  D
C796        H804   1.085       .  S
C805        C813   1.494       .  S
C805        C806   1.406       .  A
C805        C810   1.408       .  A
C806        C807   1.406       .  A
C806        H815   1.083       .  S
C807        C808   1.408       .  A
C807        H816   1.082       .  S
C808        C811   1.491       .  S
C808        C809   1.404       .  A
C809        C810   1.396       .  A
C809        H817   1.084       .  S
C810        H818   1.082       .  S
C811        H819   1.087       .  S
C811        C812   1.351       .  D
C812        H820   1.085       .  S
C813        H821   1.087       .  S
C813        C814   1.347       .  D
C814        H822   1.085       .  S
C823        C831   1.501       .  S
C823        C824   1.409       .  A
C823        C828   1.410       .  A
C824        C825   1.405       .  A
C824        H833   1.083       .  S
C825        C826   1.405       .  A
C825        H834   1.082       .  S
C826        C829   1.491       .  S
C826        C827   1.404       .  A
C827        C828   1.400       .  A
C827        H835   1.083       .  S
C828        H836   1.080       .  S
C829        H837   1.088       .  S
C829        C830   1.351       .  D
C830        H838   1.085       .  S
C831        H839   1.087       .  S
C831        C832   1.349       .  D
C832        H840   1.082       .  S
C841        C849   1.484       .  S
C841        C842   1.408       .  A
C841        C846   1.402   1_554  A
C842        C843   1.401       .  A
C842        H851   1.083       .  S
C843        C844   1.403       .  A
C843        H852   1.082       .  S
C844        C847   1.485       .  S
C844        C845   1.407   1_554  A
C845        C846   1.398       .  A
C845        H853   1.083       .  S
C846        H854   1.082       .  S
C847        H855   1.087   1_554  S
C847        C848   1.353       .  D
C848        H856   1.085       .  S
C849        H857   1.088       .  S
C849        C850   1.354   1_554  D
C850        H858   1.085       .  S
C859        C867   1.478       .  S
C859        C860   1.401       .  A
C859        C864   1.406   1_556  A
C860        C861   1.396       .  A
C860        H869   1.083       .  S
C861        C862   1.407       .  A
C861        H870   1.083       .  S
C862        C865   1.479   1_556  S
C862        C863   1.402   1_556  A
C863        C864   1.398       .  A
C863        H871   1.082       .  S
C864        H872   1.083       .  S
C865        H873   1.088   1_554  S
C865        C866   1.354       .  D
C866        H874   1.085       .  S
C867        H875   1.087   1_556  S
C867        C868   1.349       .  D
C868        H876   1.085       .  S
C877        C885   1.493   1_556  S
C877        C878   1.406   1_556  A
C877        C882   1.408       .  A
C878        C879   1.402   1_545  A
C878        H887   1.083       .  S
C879        C880   1.406   1_554  A
C879        H888   1.082       .  S
C880        C883   1.489       .  S
C880        C881   1.404       .  A
C881        C882   1.401   1_565  A
C881        H889   1.083       .  S
C882        H890   1.081       .  S
C883        H891   1.087       .  S
C883        C884   1.349   1_556  D
C884        H892   1.086       .  S
C885        H893   1.087       .  S
C885        C886   1.349   1_554  D
C886        H894   1.085       .  S
C895        C903   1.489       .  S
C895        C896   1.404       .  A
C895        C900   1.406       .  A
C896        C897   1.404       .  A
C896        H905   1.083       .  S
C897        C898   1.410       .  A
C897        H906   1.081   1_556  S
C898        C901   1.491       .  S
C898        C899   1.404       .  A
C899        C900   1.397       .  A
C899        H907   1.083       .  S
C900        H908   1.083       .  S
C901        H909   1.087       .  S
C901        C902   1.350   1_556  D
C902        H910   1.085       .  S
C903        H911   1.086       .  S
C903        C904   1.345       .  D
C904        H912   1.087       .  S
