geometry optimzed in LAMMPS
_audit_creation_date              2020-11-30 
_audit_creation_method            'lammps2cif' 
_symmetry_space_group_name_H-M    'P1' 
_symmetry_Int_Tables_number       1 
_symmetry_cell_setting            triclinic 
loop_ 
_symmetry_equiv_pos_as_xyz 
  x,y,z 
_cell_length_a                    25.726084145306196 
_cell_length_b                    25.96031432841654 
_cell_length_c                    25.399827684935886 
_cell_angle_alpha                 90.9169723536336 
_cell_angle_beta                  90.15010017246541 
_cell_angle_gamma                 89.49907950965684 
loop_ 
_atom_site_label 
_atom_site_type_symbol 
_atom_site_fract_x 
_atom_site_fract_y 
_atom_site_fract_z 
_atom_site_charge 
O1          O  0.49362836  0.96391084  0.40688955    -0.89450
C2          C  0.48407260  0.89187388  0.54659044     0.86580
Mg3        Mg  0.55903976  0.00700645  0.38375066     1.58150
O4          O  0.40901006  0.00419038  0.53843280    -0.89180
O5          O  0.40966215  0.97609963  0.41782116    -0.76510
C6          C  0.61780094  0.14200048  0.59847882     0.91630
O7          O  0.58350778  0.91189464  0.47541896    -0.76330
O8          O  0.63941095  0.12605608  0.55625205    -0.83830
Mg9        Mg  0.50730070  0.88819839  0.43520996     1.57960
C10         C  0.40680718  0.11602788  0.65031102     0.91550
O11         O  0.43334572  0.86114852  0.38999037    -0.82090
H12         H  0.35483503  0.04575233  0.50117636    -0.07440
C13         C  0.54974284  0.01705425  0.60773021     0.86490
O14         O  0.51805882  0.08172677  0.41004520    -0.76600
O15         O  0.46579716  0.90864349  0.50499488    -0.89370
O16         O  0.39862674  0.06772318  0.64451031    -0.82180
C17         C  0.35778233  0.90297043  0.62085531     0.91670
C18         C  0.38579455  0.85281375  0.40091657     0.91520
Mg19       Mg  0.49506786  0.11073380  0.56331274     1.57950
O20         O  0.56918008  0.13713912  0.60634246    -0.82100
O21         O  0.41801258  0.08697406  0.52372491    -0.76340
O22         O  0.36255449  0.89461715  0.57127413    -0.82180
O23         O  0.55750381  0.86385925  0.36661927    -0.83890
O24         O  0.63881870  0.10366912  0.43074625    -0.82210
C25         C  0.39210632  0.04541913  0.52093538     0.85960
O26         O  0.53599031  0.08966355  0.49436215    -0.89350
O27         O  0.50775671  0.03479983  0.59187644    -0.89460
O28         O  0.59128568  0.01974996  0.58089118    -0.76510
Mg29       Mg  0.38854452  0.93638202  0.49524064     1.57970
O30         O  0.37513857  0.94370809  0.64300057    -0.83890
H31         H  0.44936861  0.99990693  0.35381928    -0.07610
O32         O  0.59147358  0.99463112  0.46023405    -0.89160
H33         H  0.64655485  0.95371282  0.49683922    -0.07440
H34         H  0.49686041  0.14368953  0.45491909    -0.07620
C35         C  0.60909179  0.95359000  0.47745236     0.85930
C36         C  0.45108933  0.98023483  0.39098672     0.86520
C37         C  0.51694650  0.10694323  0.45334636     0.86570
H38         H  0.55071911  0.99704404  0.64472685    -0.07600
O39         O  0.48150278  0.91739040  0.58972773    -0.76620
Mg40       Mg  0.61319308  0.06026899  0.50442886     1.58000
H41         H  0.50419704  0.85513484  0.54589681    -0.07610
C42         C  0.59735627  0.88655753  0.34914546     0.91550
O43         O  0.62383595  0.05845284  0.35696433    -0.83850
C44         C  0.64194731  0.09784779  0.38088573     0.91610
O45         O  0.36579651  0.86721194  0.44470402    -0.83840
Mg46       Mg  0.44136121  0.99337556  0.61527441     1.58180
O47         O  0.60369143  0.93503220  0.35401938    -0.82170
O48         O  0.44762763  0.13685377  0.63285210    -0.83860
O49         O  0.03786492  0.50746661  0.59273189    -0.89450
C50         C  0.10673200  0.51925882  0.45092519     0.86580
Mg51       Mg  0.99466062  0.44234658  0.61483899     1.58150
O52         O  0.99319031  0.59262419  0.46449179    -0.89180
O53         O  0.02278812  0.59045082  0.58421607    -0.76510
C54         C  0.85269366  0.38746583  0.40449684     0.91630
O55         O  0.08870707  0.41927927  0.51924919    -0.76330
O56         O  0.87110087  0.36578752  0.44497107    -0.83830
Mg57       Mg  0.11371641  0.49420371  0.56054363     1.57960
C58         C  0.87920686  0.59763760  0.35509300     0.91550
O59         O  0.14273490  0.56675990  0.60542361    -0.82090
H60         H  0.95220565  0.64657359  0.50370493    -0.07440
C61         C  0.97899402  0.45492180  0.39104206     0.86490
O62         O  0.91872718  0.48327367  0.59204919    -0.76600
O63         O  0.09090029  0.53689997  0.49363375    -0.89370
O64         O  0.92812307  0.60480910  0.35980902    -0.82180
C65         C  0.09383953  0.64485188  0.38179615     0.91670
C66         C  0.14760789  0.61502132  0.59831042     0.91520
Mg67       Mg  0.88520901  0.50869455  0.44031188     1.57950
O68         O  0.85702141  0.43558276  0.39649118    -0.82100
O69         O  0.90985213  0.58441888  0.48109075    -0.76340
O70         O  0.10359903  0.63982169  0.43082961    -0.82180
O71         O  0.14039866  0.44288016  0.62659474    -0.83890
O72         O  0.89649335  0.36302427  0.56828650    -0.82210
C73         C  0.95197575  0.60972512  0.48326438     0.85960
O74         O  0.90834493  0.46695800  0.50752027    -0.89350
O75         O  0.96120262  0.49623737  0.40855209    -0.89460
O76         O  0.97741571  0.41355521  0.41710390    -0.76510
Mg77       Mg  0.06157251  0.61316543  0.50672770     1.57970
O78         O  0.05234172  0.62823202  0.36047935    -0.83890
H79         H  0.00162997  0.54982759  0.64814568    -0.07610
O80         O  0.00557175  0.41169057  0.53691609    -0.89160
H81         H  0.04582101  0.35721223  0.49772208    -0.07440
H82         H  0.85518707  0.50533764  0.55039523    -0.07620
C83         C  0.04651396  0.39415064  0.51797249     0.85930
C84         C  0.02072650  0.54906810  0.61027331     0.86520
C85         C  0.89217171  0.48524165  0.54982215     0.86570
H86         H  0.99824702  0.45444210  0.35325285    -0.07600
O87         O  0.07989229  0.52207101  0.40889830    -0.76620
Mg88       Mg  0.93846951  0.39074647  0.49438423     1.58000
H89         H  0.14378378  0.49930783  0.44968467    -0.07610
C90         C  0.11739066  0.40361139  0.64441587     0.91550
O91         O  0.94313702  0.37746759  0.64112848    -0.83850
C92         C  0.90354116  0.35895169  0.61770338     0.91610
O93         O  0.12975605  0.63736595  0.55772672    -0.83840
Mg94       Mg  0.00301397  0.56214621  0.38654920     1.58180
O95         O  0.06819735  0.39828041  0.64107695    -0.82170
O96         O  0.85749688  0.55777437  0.37304774    -0.83860
O97         O  0.50741631  0.58835936  0.03678907    -0.89450
C98         C  0.52190135  0.45121760  0.10768611     0.86580
Mg99       Mg  0.43976414  0.61002823  0.99454020     1.58150
O100        O  0.59128995  0.46147283  0.99081444    -0.89180
O101        O  0.59080029  0.57895227  0.02023672    -0.76510
C102        C  0.38131988  0.39998130  0.85265231     0.91630
O103        O  0.42048533  0.51998307  0.09012865    -0.76330
O104        O  0.36186611  0.44316059  0.86729669    -0.83830
Mg105      Mg  0.49719648  0.55912797  0.11416139     1.57960
C106        C  0.59777925  0.35399832  0.87847146     0.91550
O107        O  0.57258161  0.60107526  0.14104316    -0.82090
H108        H  0.64395381  0.49838861  0.94796186    -0.07440
C109        C  0.45295349  0.39101919  0.97937460     0.86490
O110        O  0.47897276  0.58501195  0.91676795    -0.76600
O111        O  0.53928400  0.49214574  0.09077769    -0.89370
O112        O  0.60468914  0.35993373  0.92781387    -0.82180
C113        C  0.64853565  0.38062041  0.09178492     0.91670
C114        C  0.62165219  0.59337440  0.14509969     0.91520
Mg115      Mg  0.50459010  0.43458658  0.88336353     1.57950
O116        O  0.42969567  0.38983729  0.85850181    -0.82100
O117        O  0.58086340  0.47504163  0.90610978    -0.76340
O118        O  0.64342281  0.42902268  0.10054328    -0.82180
O119        O  0.44670619  0.62628014  0.14237314    -0.83890
O120        O  0.36007313  0.56572301  0.89339452    -0.82210
C121        C  0.60721182  0.47850622  0.94851058     0.85960
O122        O  0.46306736  0.50232663  0.90608075    -0.89350
O123        O  0.49427833  0.40727970  0.96129634    -0.89460
O124        O  0.41073255  0.41678410  0.97685340    -0.76510
Mg125      Mg  0.61519886  0.50296407  0.05889599     1.57970
O126        O  0.63064876  0.35927431  0.05032213    -0.83890
H127        H  0.54837734  0.64172684  0.99948989    -0.07610
O128        O  0.40955068  0.53455473  0.00565072    -0.89160
H129        H  0.35685601  0.49771293  0.04849699    -0.07440
H130        H  0.50073894  0.54311994  0.85225943    -0.07620
C131        C  0.39378156  0.51726056  0.04788956     0.85930
C132        C  0.54864065  0.60488251  0.01874544     0.86520
C133        C  0.48106418  0.54326143  0.88981991     0.86570
H134        H  0.45310267  0.35453184  0.99930957    -0.07600
O135        O  0.52365600  0.40938621  0.08090727    -0.76620
Mg136      Mg  0.38723108  0.49237773  0.93672439     1.58000
H137        H  0.50295654  0.45147192  0.14563269    -0.07610
C138        C  0.40571924  0.64377847  0.12050376     0.91550
O139        O  0.37216497  0.63598430  0.94368305    -0.83850
C140        C  0.35520558  0.61408341  0.90191918     0.91610
O141        O  0.64324222  0.55243460  0.12719035    -0.83840
Mg142      Mg  0.56217245  0.38573142  0.00260474     1.58180
O143        O  0.39785597  0.63856033  0.07090917    -0.82170
O144        O  0.55563887  0.36779526  0.85614788    -0.83860
O145        O  0.09095708  0.00764169  0.96406023    -0.89450
C146        C  0.95214295  0.02138567  0.89113446     0.86580
Mg147      Mg  0.11268263  0.94145737  0.00655566     1.58150
O148        O  0.96256101  0.09223789  0.00806126    -0.89180
O149        O  0.08132866  0.09029975  0.98173668    -0.76510
C150        C  0.90023909  0.88523403  0.14317618     0.91630
O151        O  0.02160298  0.92059247  0.90854278    -0.76330
O152        O  0.94097944  0.86321680  0.12516611    -0.83830
Mg153      Mg  0.06093699  0.99615608  0.88621029     1.57960
C154        C  0.85267068  0.09879559  0.11882744     0.91550
O155        O  0.10352248  0.06911867  0.85939681    -0.82090
H156        H  0.99936690  0.14497942  0.05229098    -0.07440
C157        C  0.89115292  0.95558973  0.01613359     0.86490
O158        O  0.08686672  0.98104072  0.08385966    -0.76600
O159        O  0.99360158  0.03844125  0.90894924    -0.89370
O160        O  0.85978553  0.10836672  0.07026689    -0.82180
C161        C  0.88321452  0.14731684  0.90433670     0.91670
C162        C  0.09552061  0.11748917  0.85585638     0.91520
Mg163      Mg  0.93539547  0.00699435  0.11395031     1.57950
O164        O  0.89228222  0.93364308  0.13962441    -0.82100
O165        O  0.97580213  0.08265451  0.09283868    -0.76340
O166        O  0.93205384  0.14202683  0.89736790    -0.82180
O167        O  0.12838322  0.94636405  0.85938222    -0.83890
O168        O  0.06628726  0.86122152  0.10417537    -0.82210
C169        C  0.97947753  0.10846536  0.05086737     0.85960
O170        O  0.00349259  0.96500137  0.09253615    -0.89350
O171        O  0.90714984  0.99649073  0.03582166    -0.89460
O172        O  0.91744253  0.91389396  0.01783059    -0.76510
Mg173      Mg  0.00523535  0.11412951  0.94128333     1.57970
O174        O  0.86065070  0.13084323  0.94515904    -0.83890
H175        H  0.14471557  0.04845925  0.00299342    -0.07610
O176        O  0.03666948  0.91130145  0.99307726    -0.89160
H177        H  0.00028902  0.85779401  0.94951331    -0.07440
H178        H  0.04434582  0.00283475  0.14769790    -0.07620
C179        C  0.01950850  0.89466990  0.95053189     0.85930
C180        C  0.10758419  0.04860863  0.98296320     0.86520
C181        C  0.04468992  0.98303678  0.10992819     0.86570
H182        H  0.85451839  0.95575591  0.99518282    -0.07600
O183        O  0.90983848  0.02420310  0.91693412    -0.76620
Mg184      Mg  0.99294042  0.88945437  0.05949730     1.58000
H185        H  0.95229757  0.00187874  0.85320954    -0.07610
C186        C  0.14722047  0.90662267  0.88135009     0.91550
O187        O  0.13838137  0.87547674  0.05786534    -0.83850
C188        C  0.11536749  0.85719496  0.09765936     0.91610
O189        O  0.05532889  0.13974698  0.87460488    -0.83840
Mg190      Mg  0.88602514  0.06404032  0.99473698     1.58180
O191        O  0.14245786  0.89921058  0.93080605    -0.82170
O192        O  0.86650680  0.05597568  0.13850134    -0.83860
C193        C  0.75093561  0.75259747  0.24717641    -0.03590
C194        C  0.75349262  0.24960795  0.74808780    -0.03590
C195        C  0.25317644  0.74903016  0.75053139    -0.03590
C196        C  0.24493553  0.24783973  0.75020590    -0.03590
C197        C  0.74759856  0.25207405  0.25455270    -0.03590
C198        C  0.24539212  0.74865668  0.25010017    -0.03590
C199        C  0.18133039  0.85965511  0.17018917    -0.14450
C200        C  0.14675805  0.83148399  0.13807186     0.07700
C201        C  0.14227674  0.77863404  0.14478134    -0.14450
C202        C  0.17363203  0.75368202  0.18126686    -0.14450
C203        C  0.20988088  0.78091955  0.21330082     0.07700
C204        C  0.21190154  0.83484706  0.20830121    -0.14450
H205        H  0.18438030  0.90096795  0.16592659     0.11680
H206        H  0.11561303  0.75637764  0.12063720     0.11680
H207        H  0.17069135  0.71219086  0.18362490     0.11680
H208        H  0.23727310  0.85799020  0.23270776     0.11680
C209        C  0.82714192  0.19086196  0.13979256    -0.14450
C210        C  0.82958727  0.13881192  0.15412326     0.07700
C211        C  0.81327930  0.12556214  0.20455912    -0.14450
C212        C  0.79128265  0.16232270  0.23836785    -0.14450
C213        C  0.78385694  0.21412375  0.22295301     0.07700
C214        C  0.80578791  0.22817437  0.17422166    -0.14450
H215        H  0.84163958  0.20277243  0.10193588     0.11680
H216        H  0.81652019  0.08620978  0.21782382     0.11680
H217        H  0.77891904  0.14861791  0.27606899     0.11680
H218        H  0.80386834  0.26769117  0.16134090     0.11680
C219        C  0.13866199  0.14830932  0.77585316    -0.14450
C220        C  0.13460978  0.14911262  0.83043630     0.07700
C221        C  0.16718807  0.18120768  0.86069163    -0.14450
C222        C  0.20407507  0.21231225  0.83633203    -0.14450
C223        C  0.20824287  0.21223013  0.78105397     0.07700
C224        C  0.17424572  0.17996743  0.75146084    -0.14450
H225        H  0.11354766  0.12399195  0.75206396     0.11680
H226        H  0.16400717  0.18211925  0.90321540     0.11680
H227        H  0.22836445  0.23668239  0.86078388     0.11680
H228        H  0.17579914  0.17934218  0.70882777     0.11680
C229        C  0.20934256  0.83309829  0.87065912    -0.14450
C230        C  0.17355973  0.86694462  0.84816610     0.07700
C231        C  0.16174532  0.86122387  0.79425480    -0.14450
C232        C  0.18527422  0.82207721  0.76361254    -0.14450
C233        C  0.22090558  0.78698945  0.78601600     0.07700
C234        C  0.23325926  0.79468094  0.84020902    -0.14450
H235        H  0.21996241  0.83711308  0.91181885     0.11680
H236        H  0.13412208  0.88696416  0.77573961     0.11680
H237        H  0.17652671  0.81992580  0.72192796     0.11680
H238        H  0.26313820  0.77263214  0.85979877     0.11680
C239        C  0.80143277  0.15303999  0.85141430    -0.14450
C240        C  0.85160214  0.17111292  0.86269885     0.07700
C241        C  0.87214455  0.21036735  0.83237400    -0.14450
C242        C  0.84203653  0.23353677  0.79356878    -0.14450
C243        C  0.79077049  0.21682989  0.78231963     0.07700
C244        C  0.77164925  0.17505488  0.81129012    -0.14450
H245        H  0.78513013  0.12196317  0.87384438     0.11680
H246        H  0.91094753  0.22457577  0.84007631     0.11680
H247        H  0.85901265  0.26600334  0.77416137     0.11680
H248        H  0.73230702  0.16168415  0.80531412     0.11680
C249        C  0.83197225  0.81753662  0.13762206    -0.14450
C250        C  0.86047012  0.85338793  0.16780294     0.07700
C251        C  0.85089604  0.85849982  0.22155341    -0.14450
C252        C  0.81515905  0.82649214  0.24546992    -0.14590
C253        C  0.78707725  0.78880137  0.21619597     0.07700
C254        C  0.79478555  0.78617486  0.16133269    -0.14450
H255        H  0.83842029  0.81401319  0.09558743     0.11680
H256        H  0.87224110  0.88618106  0.24532788     0.11680
H257        H  0.81034240  0.83001015  0.28773224     0.11680
H258        H  0.77321054  0.75967889  0.13666287     0.11680
C259        C  0.36079821  0.65977745  0.20782989    -0.14450
C260        C  0.36509480  0.66930092  0.15356605     0.07700
C261        C  0.32844359  0.70170607  0.13024075    -0.14450
C262        C  0.28939500  0.72527335  0.16016171    -0.14450
C263        C  0.28379854  0.71614018  0.21497692     0.07700
C264        C  0.32066031  0.68261030  0.23797089    -0.14450
H265        H  0.38835704  0.63443992  0.22698897     0.11680
H266        H  0.33072013  0.71012116  0.08866860     0.11680
H267        H  0.26528412  0.75235547  0.13928751     0.11680
H268        H  0.31936318  0.67540475  0.27981247     0.11680
C269        C  0.36120469  0.67580934  0.82777507    -0.14450
C270        C  0.33068000  0.64601015  0.86137686     0.07700
C271        C  0.27680732  0.64696152  0.85600819    -0.14450
C272        C  0.25347406  0.67898499  0.81916384    -0.14450
C273        C  0.28328903  0.71148244  0.78671996     0.07700
C274        C  0.33783900  0.70781353  0.79021632    -0.14450
H275        H  0.40319915  0.67436241  0.83077470     0.11680
H276        H  0.25272091  0.62380482  0.88114036     0.11680
H277        H  0.21141225  0.68001869  0.81715864     0.11680
H278        H  0.36258401  0.72965241  0.76473021     0.11680
C279        C  0.64568281  0.34420365  0.79301877    -0.14450
C280        C  0.64099810  0.33257885  0.84655878     0.07700
C281        C  0.68036408  0.30358231  0.87046257    -0.14450
C282        C  0.72013150  0.28137163  0.84040849    -0.14450
C283        C  0.72106489  0.28641362  0.78494510     0.07700
C284        C  0.68623426  0.32279231  0.76295920    -0.14450
H285        H  0.61741443  0.36896822  0.77410589     0.11680
H286        H  0.67957255  0.29656481  0.91238294     0.11680
H287        H  0.74832752  0.25858107  0.86142086     0.11680
H288        H  0.68682372  0.32993771  0.72107076     0.11680
C289        C  0.69166043  0.26386320  0.16992331    -0.14450
C290        C  0.71717350  0.28641221  0.21395131     0.07700
C291        C  0.72163158  0.34116115  0.21365383    -0.14450
C292        C  0.69960433  0.37100472  0.17434871    -0.14450
C293        C  0.67365781  0.34803901  0.13202738     0.07700
C294        C  0.67002562  0.29405330  0.12998719    -0.14450
H295        H  0.69151581  0.22253521  0.16406861     0.11680
H296        H  0.74403237  0.36274783  0.24203674     0.11680
H297        H  0.70398715  0.41245642  0.17670937     0.11680
H298        H  0.65083124  0.27494352  0.09719619     0.11680
C299        C  0.63142768  0.67378916  0.19894190    -0.14450
C300        C  0.65453239  0.63417969  0.16925975     0.07700
C301        C  0.70857692  0.63565472  0.16074015    -0.14450
C302        C  0.73880795  0.67560496  0.18242673    -0.14450
C303        C  0.71608953  0.71533653  0.21358306     0.07700
C304        C  0.66131533  0.71298124  0.22110848    -0.14450
H305        H  0.58997593  0.67387201  0.20639628     0.11680
H306        H  0.72761097  0.60579130  0.13740443     0.11680
H307        H  0.78050375  0.67424519  0.17679592     0.11680
H308        H  0.64033017  0.73958810  0.24638917     0.11680
C309        C  0.29633987  0.37497871  0.81266752    -0.14450
C310        C  0.34584615  0.36038103  0.83021596     0.07700
C311        C  0.35884587  0.30765229  0.82998496    -0.14450
C312        C  0.32405612  0.27084874  0.80965582    -0.14450
C313        C  0.27625651  0.28590400  0.78647463     0.07700
C314        C  0.26218641  0.33868319  0.79164857    -0.14450
H315        H  0.28409578  0.41500600  0.81415207     0.11680
H316        H  0.39592374  0.29481820  0.84548855     0.11680
H317        H  0.33601764  0.23076386  0.80920565     0.11680
H318        H  0.22525753  0.35336358  0.77813817     0.11680
C319        C  0.22689310  0.64510187  0.64471349    -0.14450
C320        C  0.17302819  0.64646384  0.63928793     0.07700
C321        C  0.14330559  0.67827411  0.67316022    -0.14450
C322        C  0.16750288  0.71004522  0.71099531    -0.14450
C323        C  0.22214736  0.71166942  0.71430539     0.07700
C324        C  0.25109113  0.67707484  0.68170860    -0.14450
H325        H  0.25032926  0.62031050  0.61938544     0.11680
H326        H  0.10129036  0.67855646  0.67017496     0.11680
H327        H  0.14326965  0.73330190  0.73679065     0.11680
H328        H  0.29315817  0.67641518  0.68367710     0.11680
C329        C  0.13298216  0.72316543  0.34526761    -0.14450
C330        C  0.13214872  0.66970998  0.34809922     0.07700
C331        C  0.16668347  0.64003418  0.31698628    -0.14450
C332        C  0.20303633  0.66387336  0.28432778    -0.14450
C333        C  0.20536833  0.71800454  0.28253428     0.07700
C334        C  0.16846597  0.74692115  0.31253995    -0.14450
H335        H  0.10608798  0.74655718  0.36832290     0.11680
H336        H  0.16557375  0.59836728  0.31817510     0.11680
H337        H  0.22885791  0.63986201  0.26091713     0.11680
H338        H  0.16849920  0.78863626  0.31179786     0.11680
C339        C  0.85164256  0.28192592  0.63709276    -0.14450
C340        C  0.86385838  0.33286126  0.64865555     0.07700
C341        C  0.83762442  0.35879171  0.68950947    -0.14450
C342        C  0.79979205  0.33358478  0.71895124    -0.14450
C343        C  0.78742283  0.28110560  0.70886225     0.07700
C344        C  0.81537504  0.25622475  0.66734898    -0.14450
H345        H  0.87199250  0.26116560  0.60592687     0.11680
H346        H  0.84676977  0.39854170  0.69897157     0.11680
H347        H  0.78303085  0.35489848  0.75167036     0.11680
H348        H  0.81242619  0.21613307  0.65825697     0.11680
C349        C  0.12786161  0.33293927  0.70827391    -0.14450
C350        C  0.14860364  0.36191936  0.66793036     0.07700
C351        C  0.19821541  0.34912630  0.64863810    -0.14450
C352        C  0.22738450  0.30888556  0.67067391    -0.14450
C353        C  0.20849267  0.28098542  0.71390196     0.07700
C354        C  0.15733825  0.29433483  0.73154803    -0.14450
H355        H  0.08956668  0.34186029  0.72377465     0.11680
H356        H  0.21448338  0.37025547  0.61624107     0.11680
H357        H  0.26505295  0.30155887  0.65411915     0.11680
H358        H  0.14033021  0.27765122  0.76610217     0.11680
C359        C  0.87011816  0.67513605  0.29912687    -0.14450
C360        C  0.84669208  0.63756959  0.32953681     0.07700
C361        C  0.79250353  0.63984606  0.33677510    -0.14450
C362        C  0.76244080  0.67863863  0.31328222    -0.14450
C363        C  0.78549419  0.71639996  0.28159426     0.07700
C364        C  0.84035850  0.71317517  0.27512108    -0.14450
H365        H  0.91170915  0.67437862  0.29251055     0.11680
H366        H  0.77322883  0.61148938  0.36048127     0.11680
H367        H  0.72065608  0.67796176  0.31816093     0.11680
H368        H  0.86150389  0.73818460  0.24950436     0.11680
C369        C  0.85689468  0.32407728  0.33051601    -0.14450
C370        C  0.82715177  0.35513855  0.36497156     0.07700
C371        C  0.77320190  0.35317748  0.36327654    -0.14450
C372        C  0.74892057  0.32000472  0.32775975    -0.14450
C373        C  0.77797888  0.28855898  0.29201471     0.07700
C374        C  0.83261247  0.29113208  0.29404279    -0.14450
H375        H  0.89895884  0.32524689  0.33207117     0.11680
H376        H  0.74991772  0.37661439  0.39004641     0.11680
H377        H  0.70682761  0.31891350  0.32753858     0.11680
H378        H  0.85670978  0.26776409  0.26812543     0.11680
C379        C  0.29718264  0.82935977  0.63092551    -0.14450
C380        C  0.33266968  0.86348788  0.65367246     0.07700
C381        C  0.34493722  0.85844638  0.70741158    -0.14450
C382        C  0.32189166  0.81996452  0.73767576    -0.14450
C383        C  0.28604243  0.78504169  0.71514018     0.07700
C384        C  0.27367014  0.79170436  0.66100195    -0.14450
H385        H  0.28625608  0.83273999  0.58989050     0.11680
H386        H  0.37239177  0.88433248  0.72611958     0.11680
H387        H  0.33086361  0.81849412  0.77928878     0.11680
H388        H  0.24385617  0.76964487  0.64121742     0.11680
C389        C  0.72991395  0.20561783  0.34208218    -0.14450
C390        C  0.71197960  0.21895925  0.29076190     0.07700
C391        C  0.66845143  0.19167055  0.27137366    -0.14450
C392        C  0.64616490  0.15195096  0.30027967    -0.14450
C393        C  0.66569822  0.13902819  0.35002347     0.07700
C394        C  0.70661636  0.16733457  0.37125139    -0.14450
H395        H  0.76469045  0.22200901  0.35913902     0.11680
H396        H  0.65161434  0.19929012  0.23360683     0.11680
H397        H  0.61336683  0.13134816  0.28373463     0.11680
H398        H  0.72235543  0.15819287  0.40963269     0.11680
C399        C  0.73339372  0.17174701  0.68571867    -0.14450
C400        C  0.71498212  0.21380044  0.71648943     0.07700
C401        C  0.66007255  0.22079466  0.71670040    -0.14450
C402        C  0.62865007  0.19790474  0.67832936    -0.14450
C403        C  0.65037075  0.16478353  0.64043028     0.07700
C404        C  0.70245448  0.14948357  0.64627610    -0.14450
H405        H  0.77198058  0.15608655  0.69168728     0.11680
H406        H  0.63987323  0.24361761  0.74590343     0.11680
H407        H  0.58740333  0.20670815  0.67800659     0.11680
H408        H  0.71900475  0.11965318  0.62099155     0.11680
C409        C  0.32582805  0.12722807  0.70283062    -0.14450
C410        C  0.36674910  0.14930366  0.67571083     0.07700
C411        C  0.36782339  0.20320397  0.67140906    -0.14450
C412        C  0.32822210  0.23416474  0.69332053    -0.14450
C413        C  0.28539034  0.21252770  0.71970907     0.07700
C414        C  0.28690501  0.15788785  0.72525505    -0.14450
H415        H  0.32439869  0.08590691  0.70796584     0.11680
H416        H  0.39963668  0.22167705  0.65148752     0.11680
H417        H  0.33356435  0.27538113  0.69284460     0.11680
H418        H  0.25985898  0.13708151  0.74893321     0.11680
C419        C  0.64911877  0.85931473  0.27142930    -0.14450
C420        C  0.63866427  0.85523736  0.32490273     0.07700
C421        C  0.66806844  0.82106915  0.35560061    -0.14450
C422        C  0.70664792  0.78971965  0.33251786    -0.14450
C423        C  0.71479218  0.79056921  0.27773282     0.07700
C424        C  0.68633380  0.82723972  0.24806576    -0.14450
H425        H  0.62720631  0.88597370  0.24741394     0.11680
H426        H  0.66107778  0.81870729  0.39753325     0.11680
H427        H  0.72868778  0.76439991  0.35759493     0.11680
H428        H  0.69160835  0.82946053  0.20587262     0.11680
C429        C  0.35551059  0.83545935  0.30754760    -0.14450
C430        C  0.35214923  0.82628922  0.36190248     0.07700
C431        C  0.31416551  0.79302955  0.37977364    -0.14450
C432        C  0.28027857  0.76909851  0.34467158    -0.14450
C433        C  0.28064040  0.77944968  0.28976125     0.07700
C434        C  0.32015721  0.81245237  0.27198177    -0.14450
H435        H  0.38489082  0.86104054  0.29270332     0.11680
H436        H  0.31143835  0.78436738  0.42127403     0.11680
H437        H  0.25512412  0.74102188  0.36194566     0.11680
H438        H  0.32429177  0.81962171  0.23033652     0.11680
loop_ 
_geom_bond_atom_site_label_1 
_geom_bond_atom_site_label_2 
_geom_bond_distance 
_geom_bond_site_symmetry_2 
_ccdc_geom_bond_type 
O1           Mg3   2.118   1_565  S
O1           Mg9   2.130       .  S
O1           C36   1.239       .  S
C2           O15   1.239       .  S
C2           O39   1.273       .  A
C2           H41   1.081       .  S
Mg3          O32   2.140   1_545  S
Mg3          O47   2.303   1_545  S
Mg3          O43   2.258       .  S
Mg3          O14   2.291       .  S
O4          Mg46   2.141   1_545  S
O4          Mg29   2.129   1_545  S
O4           C25   1.240       .  S
O5           C36   1.273       .  A
O5          Mg29   2.303       .  S
C6            O8   1.271       .  A
C6           O20   1.275       .  A
C6          C403   1.473       .  S
O7           C35   1.272       .  A
O7           Mg9   2.293       .  S
O8          Mg40   2.247       .  S
Mg9          O15   2.129       .  S
Mg9          O23   2.251       .  S
Mg9          O11   2.328       .  S
C10          O48   1.270       .  A
C10          O16   1.279       .  A
C10         C410   1.481       .  S
O11          C18   1.276       .  A
H12          C25   1.081       .  S
C13          O27   1.239       .  S
C13          O28   1.272       .  A
C13          H38   1.081   1_545  S
O14          C37   1.271       .  A
O15         Mg29   2.123       .  S
O16         Mg46   2.325   1_545  S
C17          O30   1.274       .  A
C17          O22   1.280       .  A
C17         C380   1.485       .  S
C18          O45   1.276       .  A
C18         C430   1.480       .  S
Mg19         O26   2.108       .  S
Mg19         O27   2.134       .  S
Mg19         O20   2.299       .  S
Mg19         O21   2.305       .  S
Mg19         O48   2.242       .  S
O21          C25   1.274       .  A
O22         Mg29   2.332       .  S
O23          C42   1.271       .  A
O24          C44   1.276       .  A
O24         Mg40   2.301       .  S
O26         Mg40   2.138       .  S
O26          C37   1.239       .  S
O27         Mg46   2.118   1_545  S
O28         Mg40   2.297       .  S
Mg29         O45   2.271       .  S
O30         Mg46   2.266       .  S
H31          C36   1.081       .  S
O32         Mg40   2.104   1_565  S
O32          C35   1.240       .  S
H33          C35   1.081       .  S
H34          C37   1.081       .  S
O39         Mg46   2.303       .  S
C42          O47   1.274       .  A
C42         C420   1.464       .  S
O43          C44   1.272       .  A
C44         C393   1.474       .  S
O49         Mg51   2.115   1_455  S
O49         Mg57   2.141       .  S
O49          C84   1.240       .  S
C50          O63   1.239       .  S
C50          O87   1.273       .  A
C50          H89   1.081       .  S
Mg51         O80   2.140   1_655  S
Mg51         O95   2.305   1_655  S
Mg51         O91   2.263       .  S
Mg51         O62   2.293       .  S
O52         Mg94   2.135   1_655  S
O52         Mg77   2.126   1_655  S
O52          C73   1.239       .  S
O53          C84   1.272       .  A
O53         Mg77   2.297       .  S
C54          O56   1.269       .  A
C54          O68   1.275       .  A
C54         C370   1.457       .  S
O55          C83   1.271       .  A
O55         Mg57   2.291       .  S
O56         Mg88   2.232       .  S
Mg57         O63   2.123       .  S
Mg57         O71   2.261       .  S
Mg57         O59   2.314       .  S
C58          O96   1.272       .  A
C58          O64   1.279       .  A
C58         C360   1.483       .  S
O59          C66   1.276       .  A
H60          C73   1.081       .  S
C61          O75   1.239       .  S
C61          O76   1.272       .  A
C61          H86   1.081       .  S
O62          C85   1.272       .  A
O63         Mg77   2.134       .  S
O64         Mg94   2.319   1_655  S
C65          O78   1.271       .  A
C65          O70   1.278       .  A
C65         C330   1.467       .  S
C66          O93   1.274       .  A
C66         C320   1.468       .  S
Mg67         O74   2.118       .  S
Mg67         O75   2.137       .  S
Mg67         O68   2.306       .  S
Mg67         O69   2.301       .  S
Mg67         O96   2.258       .  S
O69          C73   1.273       .  A
O70         Mg77   2.330       .  S
O71          C90   1.273       .  A
O72          C92   1.274       .  A
O72         Mg88   2.297       .  S
O74         Mg88   2.140       .  S
O74          C85   1.239       .  S
O75         Mg94   2.113   1_655  S
O76         Mg88   2.295       .  S
Mg77         O93   2.265       .  S
O78         Mg94   2.252       .  S
H79          C84   1.081       .  S
O80         Mg88   2.105   1_455  S
O80          C83   1.239       .  S
H81          C83   1.081       .  S
H82          C85   1.081       .  S
O87         Mg94   2.301       .  S
C90          O95   1.277       .  A
C90         C350   1.475       .  S
O91          C92   1.272       .  A
C92         C340   1.467       .  S
O97         Mg99   2.119   1_554  S
O97        Mg105   2.136       .  S
O97         C132   1.239       .  S
C98         O111   1.240       .  S
C98         O135   1.273       .  A
C98         H137   1.081       .  S
Mg99        O128   2.137   1_556  S
Mg99        O143   2.329   1_556  S
Mg99        O139   2.268       .  S
Mg99        O110   2.302       .  S
O100       Mg142   2.136   1_556  S
O100       Mg125   2.115   1_556  S
O100        C121   1.240       .  S
O101        C132   1.272       .  A
O101       Mg125   2.299       .  S
C102        O104   1.274       .  A
C102        O116   1.279       .  A
C102        C310   1.486       .  S
O103        C131   1.274       .  A
O103       Mg105   2.304       .  S
O104       Mg136   2.259       .  S
Mg105       O111   2.118       .  S
Mg105       O119   2.273       .  S
Mg105       O107   2.328       .  S
C106        O144   1.273       .  A
C106        O112   1.272       .  A
C106        C280   1.477       .  S
O107        C114   1.281       .  A
H108        C121   1.081       .  S
C109        O123   1.239       .  S
C109        O124   1.273       .  A
C109        H134   1.081       .  S
O110        C133   1.273       .  A
O111       Mg125   2.139       .  S
O112       Mg142   2.283   1_556  S
C113        O126   1.269       .  A
C113        O118   1.278       .  A
C113        C293   1.481       .  S
C114        O141   1.273       .  A
C114        C300   1.485       .  S
Mg115       O122   2.122       .  S
Mg115       O123   2.131       .  S
Mg115       O116   2.339       .  S
Mg115       O117   2.302       .  S
Mg115       O144   2.266       .  S
O117        C121   1.273       .  A
O118       Mg125   2.317       .  S
O119        C138   1.274       .  A
O120        C140   1.276       .  A
O120       Mg136   2.316       .  S
O122       Mg136   2.122       .  S
O122        C133   1.240       .  S
O123       Mg142   2.111   1_556  S
O124       Mg136   2.301       .  S
Mg125       O141   2.262       .  S
O126       Mg142   2.245       .  S
H127        C132   1.081   1_556  S
O128       Mg136   2.130   1_554  S
O128        C131   1.240       .  S
H129        C131   1.081       .  S
H130        C133   1.081       .  S
O135       Mg142   2.297       .  S
C138        O143   1.281       .  A
C138        C260   1.487       .  S
O139        C140   1.273       .  A
C140        C270   1.470       .  S
O145       Mg147   2.114   1_546  S
O145       Mg153   2.138   1_545  S
O145        C180   1.239       .  S
C146        O159   1.240       .  S
C146        O183   1.273       .  A
C146        H185   1.081       .  S
Mg147       O176   2.137   1_554  S
Mg147       O191   2.327   1_554  S
Mg147       O187   2.262       .  S
Mg147       O158   2.298       .  S
O148       Mg190   2.131   1_554  S
O148       Mg173   2.111   1_654  S
O148        C169   1.239       .  S
O149        C180   1.272       .  A
O149       Mg173   2.293       .  S
C150        O152   1.272       .  A
C150        O164   1.276       .  A
C150        C250   1.468       .  S
O151        C179   1.272       .  A
O151       Mg153   2.295       .  S
O152       Mg184   2.258       .  S
Mg153       O159   2.119   1_465  S
Mg153       O167   2.255       .  S
Mg153       O155   2.309   1_565  S
C154        O192   1.274       .  A
C154        O160   1.276       .  A
C154        C210   1.482       .  S
O155        C162   1.275       .  A
H156        C169   1.081       .  S
C157        O171   1.240       .  S
C157        O172   1.273       .  A
C157        H182   1.081   1_554  S
O158        C181   1.273       .  A
O159       Mg173   2.141   1_655  S
O160       Mg190   2.320   1_554  S
C161        O174   1.271       .  A
C161        O166   1.275       .  A
C161        C240   1.473       .  S
C162        O189   1.270       .  A
C162        C220   1.462       .  S
Mg163       O170   2.123   1_645  S
Mg163       O171   2.126   1_545  S
Mg163       O164   2.316   1_545  S
Mg163       O165   2.302       .  S
Mg163       O192   2.256       .  S
O165        C169   1.272       .  A
O166       Mg173   2.303   1_655  S
O167        C186   1.272       .  A
O168        C188   1.277       .  A
O168       Mg184   2.319   1_455  S
O170       Mg184   2.140   1_455  S
O170        C181   1.240       .  S
O171       Mg190   2.121   1_564  S
O172       Mg184   2.299       .  S
Mg173       O189   2.244       .  S
O174       Mg190   2.251       .  S
H175        C180   1.081   1_554  S
O176       Mg184   2.118   1_456  S
O176        C179   1.239       .  S
H177        C179   1.081       .  S
H178        C181   1.081   1_545  S
O183       Mg190   2.298       .  S
C186        O191   1.280       .  A
C186        C230   1.481       .  S
O187        C188   1.273       .  A
C188        C200   1.470       .  S
C193        C253   1.552       .  S
C193        C303   1.566       .  S
C193        C363   1.564       .  S
C193        C423   1.550       .  S
C194        C243   1.551       .  S
C194        C283   1.564       .  S
C194        C343   1.570       .  S
C194        C400   1.574       .  S
C195        C233   1.560       .  S
C195        C273   1.551       .  S
C195        C323   1.551       .  S
C195        C383   1.563       .  S
C196        C223   1.550       .  S
C196        C313   1.567       .  S
C196        C353   1.574       .  S
C196        C413   1.577       .  S
C197        C213   1.564       .  S
C197        C290   1.576       .  S
C197        C373   1.547       .  S
C197        C390   1.571       .  S
C198        C203   1.555       .  S
C198        C263   1.565       .  S
C198        C333   1.553       .  S
C198        C433   1.568       .  S
C199        H205   1.083       .  S
C199        C200   1.407       .  A
C199        C204   1.406       .  A
C200        C201   1.391       .  A
C201        H206   1.083       .  S
C201        C202   1.391       .  A
C202        H207   1.083       .  S
C202        C203   1.422       .  A
C203        C204   1.409       .  A
C204        H208   1.079       .  S
C209        H215   1.083       .  S
C209        C210   1.406       .  A
C209        C214   1.404       .  A
C210        C211   1.398       .  A
C211        H216   1.083       .  S
C211        C212   1.391       .  A
C212        H217   1.077       .  S
C212        C213   1.418       .  A
C213        C214   1.416       .  A
C214        H218   1.082       .  S
C219        H225   1.083       .  S
C219        C220   1.390       .  A
C219        C224   1.389       .  A
C220        C221   1.406       .  A
C221        H226   1.083       .  S
C221        C222   1.403       .  A
C222        H227   1.081       .  S
C222        C223   1.408       .  A
C223        C224   1.421       .  A
C224        H228   1.084       .  S
C229        H235   1.084       .  S
C229        C230   1.395       .  A
C229        C234   1.392       .  A
C230        C231   1.408       .  A
C231        H236   1.083       .  S
C231        C232   1.404       .  A
C232        H237   1.083       .  S
C232        C233   1.412       .  A
C233        C234   1.423       .  A
C234        H238   1.080       .  S
C239        H245   1.083       .  S
C239        C240   1.404       .  A
C239        C244   1.400       .  A
C240        C241   1.396       .  A
C241        H246   1.083       .  S
C241        C242   1.393       .  A
C242        H247   1.079       .  S
C242        C243   1.419       .  A
C243        C244   1.413       .  A
C244        H248   1.082       .  S
C249        H255   1.083       .  S
C249        C250   1.406       .  A
C249        C254   1.405       .  A
C250        C251   1.392       .  A
C251        H256   1.083       .  S
C251        C252   1.392       .  A
C252        H257   1.083       .  S
C252        C253   1.421       .  A
C253        C254   1.409       .  A
C254        H258   1.079       .  S
C259        H265   1.083       .  S
C259        C260   1.409       .  A
C259        C264   1.408       .  A
C260        C261   1.395       .  A
C261        H266   1.084       .  S
C261        C262   1.393       .  A
C262        H267   1.078       .  S
C262        C263   1.424       .  A
C263        C264   1.413       .  A
C264        H268   1.083       .  S
C269        H275   1.083       .  S
C269        C270   1.407       .  A
C269        C274   1.405       .  A
C270        C271   1.392       .  A
C271        H276   1.083       .  S
C271        C272   1.393       .  A
C272        H277   1.083       .  S
C272        C273   1.420       .  A
C273        C274   1.408       .  A
C274        H278   1.080       .  S
C279        H285   1.083       .  S
C279        C280   1.403       .  A
C279        C284   1.400       .  A
C280        C281   1.400       .  A
C281        H286   1.083       .  S
C281        C282   1.393       .  A
C282        H287   1.078       .  S
C282        C283   1.417       .  A
C283        C284   1.416       .  A
C284        H288   1.083       .  S
C289        H295   1.081       .  S
C289        C290   1.416       .  A
C289        C294   1.403       .  A
C290        C291   1.427       .  A
C291        H296   1.075       .  S
C291        C292   1.390       .  A
C292        H297   1.084       .  S
C292        C293   1.393       .  A
C293        C294   1.406       .  A
C294        H298   1.083       .  S
C299        H305   1.084       .  S
C299        C300   1.395       .  A
C299        C304   1.392       .  A
C300        C301   1.409       .  A
C301        H306   1.083       .  S
C301        C302   1.406       .  A
C302        H307   1.083       .  S
C302        C303   1.413       .  A
C303        C304   1.425       .  A
C304        H308   1.078       .  S
C309        H315   1.083       .  S
C309        C310   1.399       .  A
C309        C314   1.393       .  A
C310        C311   1.406       .  A
C311        H316   1.083       .  S
C311        C312   1.406       .  A
C312        H317   1.082       .  S
C312        C313   1.417       .  A
C313        C314   1.418       .  A
C314        H318   1.078       .  S
C319        H325   1.083       .  S
C319        C320   1.392       .  A
C319        C324   1.393       .  A
C320        C321   1.406       .  A
C321        H326   1.083       .  S
C321        C322   1.404       .  A
C322        H327   1.080       .  S
C322        C323   1.409       .  A
C323        C324   1.419       .  A
C324        H328   1.083       .  S
C329        H335   1.083       .  S
C329        C330   1.391       .  A
C329        C334   1.391       .  A
C330        C331   1.407       .  A
C331        H336   1.083       .  S
C331        C332   1.406       .  A
C332        H337   1.080       .  S
C332        C333   1.409       .  A
C333        C334   1.421       .  A
C334        H338   1.083       .  S
C339        H345   1.084       .  S
C339        C340   1.388       .  A
C339        C344   1.392       .  A
C340        C341   1.400       .  A
C341        H346   1.084       .  S
C341        C342   1.402       .  A
C342        H347   1.080       .  S
C342        C343   1.421       .  A
C343        C344   1.421       .  A
C344        H348   1.066       .  S
C349        H355   1.084       .  S
C349        C350   1.391       .  A
C349        C354   1.390       .  A
C350        C351   1.404       .  A
C351        H356   1.083       .  S
C351        C352   1.404       .  A
C352        H357   1.072       .  S
C352        C353   1.414       .  A
C353        C354   1.429       .  A
C354        H358   1.080       .  S
C359        H365   1.083       .  S
C359        C360   1.396       .  A
C359        C364   1.392       .  A
C360        C361   1.407       .  A
C361        H366   1.083       .  S
C361        C362   1.404       .  A
C362        H367   1.083       .  S
C362        C363   1.414       .  A
C363        C364   1.423       .  A
C364        H368   1.078       .  S
C369        H375   1.083       .  S
C369        C370   1.404       .  A
C369        C374   1.400       .  A
C370        C371   1.390       .  A
C371        H376   1.083       .  S
C371        C372   1.388       .  A
C372        H377   1.084       .  S
C372        C373   1.421       .  A
C373        C374   1.408       .  A
C374        H378   1.081       .  S
C379        H385   1.084       .  S
C379        C380   1.395       .  A
C379        C384   1.393       .  A
C380        C381   1.408       .  A
C381        H386   1.083       .  S
C381        C382   1.406       .  A
C382        H387   1.082       .  S
C382        C383   1.413       .  A
C383        C384   1.424       .  A
C384        H388   1.079       .  S
C389        H395   1.081       .  S
C389        C390   1.428       .  A
C389        C394   1.390       .  A
C390        C391   1.414       .  A
C391        H396   1.072       .  S
C391        C392   1.403       .  A
C392        H397   1.083       .  S
C392        C393   1.403       .  A
C393        C394   1.392       .  A
C394        H398   1.084       .  S
C399        H405   1.081       .  S
C399        C400   1.412       .  A
C399        C404   1.399       .  A
C400        C401   1.423       .  A
C401        H406   1.074       .  S
C401        C402   1.394       .  A
C402        H407   1.084       .  S
C402        C403   1.395       .  A
C403        C404   1.402       .  A
C404        H408   1.083       .  S
C409        H415   1.084       .  S
C409        C410   1.392       .  A
C409        C414   1.391       .  A
C410        C411   1.406       .  A
C411        H416   1.083       .  S
C411        C412   1.403       .  A
C412        H417   1.080       .  S
C412        C413   1.416       .  A
C413        C414   1.428       .  A
C414        H418   1.076       .  S
C419        H425   1.083       .  S
C419        C420   1.391       .  A
C419        C424   1.391       .  A
C420        C421   1.405       .  A
C421        H426   1.083       .  S
C421        C422   1.402       .  A
C422        H427   1.079       .  S
C422        C423   1.408       .  A
C423        C424   1.421       .  A
C424        H428   1.083       .  S
C429        H435   1.083       .  S
C429        C430   1.408       .  A
C429        C434   1.410       .  A
C430        C431   1.391       .  A
C431        H436   1.084       .  S
C431        C432   1.389       .  A
C432        H437   1.078       .  S
C432        C433   1.425       .  A
C433        C434   1.415       .  A
C434        H438   1.083       .  S
