geometry optimzed in LAMMPS
_audit_creation_date              2020-12-01 
_audit_creation_method            'lammps2cif' 
_symmetry_space_group_name_H-M    'P1' 
_symmetry_Int_Tables_number       1 
_symmetry_cell_setting            triclinic 
loop_ 
_symmetry_equiv_pos_as_xyz 
  x,y,z 
_cell_length_a                    43.54344691 
_cell_length_b                    43.212344675778105 
_cell_length_c                    42.80459914365276 
_cell_angle_alpha                 90.85430670190057 
_cell_angle_beta                  88.61731329300595 
_cell_angle_gamma                 88.36805746652124 
loop_ 
_atom_site_label 
_atom_site_type_symbol 
_atom_site_fract_x 
_atom_site_fract_y 
_atom_site_fract_z 
_atom_site_charge 
C1          C  0.19541646  0.81746614  0.52854457     0.80100
N2          N  0.17767684  0.84374346  0.52738496    -0.78200
C3          C  0.16791552  0.85515607  0.49975665     0.82600
N4          N  0.17677771  0.83993125  0.47281870    -0.78100
C5          C  0.19446794  0.81345137  0.47357495     0.82700
N6          N  0.20408977  0.80270171  0.50142362    -0.79800
C7          C  0.82762597  0.18481374  0.47604250     0.80100
N8          N  0.81040147  0.18859201  0.50284149    -0.78200
C9          C  0.82113485  0.17868835  0.53071930     0.82600
N10         N  0.84980716  0.16526044  0.53142936    -0.78100
C11         C  0.86729898  0.16055774  0.50484757     0.82700
N12         N  0.85577202  0.17034282  0.47739243    -0.79800
C13         C  0.87037137  0.83596054  0.48245617     0.80100
N14         N  0.88747046  0.86126062  0.48689291    -0.78200
C15         C  0.89906249  0.86796685  0.51527441     0.82600
N16         N  0.89296064  0.84906830  0.53958382    -0.78100
C17         C  0.87515090  0.82393914  0.53575692     0.82700
N18         N  0.86421871  0.81746721  0.50703675    -0.79800
C19         C  0.57612001  0.83152714  0.18125936     0.80100
N20         N  0.54817411  0.82394382  0.19317256    -0.78200
C21         C  0.52270846  0.84112919  0.18674539     0.82600
N22         N  0.52544458  0.86601157  0.16796836    -0.78100
C23         C  0.55305673  0.87459092  0.15624321     0.82700
N24         N  0.57850452  0.85698822  0.16293382    -0.79800
C25         C  0.85123379  0.50219810  0.17730377     0.80100
N26         N  0.83846543  0.52974504  0.18688514    -0.78200
C27         C  0.84981806  0.55643581  0.17591168     0.82600
N28         N  0.87412304  0.55544365  0.15532664    -0.78100
C29         C  0.88758360  0.52791591  0.14580807     0.82700
N30         N  0.87581769  0.50142165  0.15713491    -0.79800
C31         C  0.87376684  0.50099596  0.79514117     0.80100
N32         N  0.89318995  0.49913613  0.81952425    -0.78200
C33         C  0.90378378  0.52523307  0.83301645     0.82600
N34         N  0.89495942  0.55302866  0.82159103    -0.78100
C35         C  0.87534050  0.55542350  0.79757925     0.82700
N36         N  0.86437830  0.52920865  0.78474662    -0.79800
C37         C  0.56174770  0.21609328  0.82319946     0.80100
N38         N  0.53434213  0.22711466  0.81304509    -0.78200
C39         C  0.50756401  0.21747779  0.82581169     0.82600
N40         N  0.50867557  0.19610548  0.84906490    -0.78100
C41         C  0.53592726  0.18405216  0.85907841     0.82700
N42         N  0.56233622  0.19416838  0.84564652    -0.79800
C43         C  0.19622193  0.56592815  0.77906211     0.80100
N44         N  0.20458730  0.53877203  0.76482199    -0.78200
C45         C  0.19461433  0.51163596  0.77601409     0.82600
N46         N  0.17572118  0.51184882  0.80192867    -0.78100
C47         C  0.16690427  0.53919387  0.81643515     0.82700
N48         N  0.17799536  0.56600689  0.80517267    -0.79800
C49         C  0.51102232  0.85865573  0.81717440     0.80100
N50         N  0.51113343  0.87936124  0.84137982    -0.78200
C51         C  0.53791514  0.89121388  0.85113972     0.82600
N52         N  0.56471053  0.88154570  0.83659323    -0.78100
C53         C  0.56478707  0.86065540  0.81254306     0.82700
N54         N  0.53783703  0.84962779  0.80265601    -0.79800
C55         C  0.01071403  0.36917547  0.27446971     0.80100
N56         N  0.03889718  0.36061611  0.26217921    -0.78200
C57         C  0.06511440  0.36966129  0.27603972     0.82600
N58         N  0.06252970  0.38728885  0.30274784    -0.78100
C59         C  0.03463097  0.39535892  0.31588347     0.82700
N60         N  0.00888751  0.38607348  0.30147972    -0.79800
Zr61       Zr  0.32632104  0.25608155  0.29496171     2.17500
O62         O  0.36017638  0.26700558  0.33802467    -0.51400
O63         O  0.32908615  0.19999415  0.29383696    -0.74600
O64         O  0.30035402  0.24390638  0.34470109    -0.81400
O65         O  0.38952923  0.26018173  0.23260794    -0.83200
O66         O  0.25144525  0.26372833  0.34263502    -0.78800
O67         O  0.37999382  0.24185900  0.28147271    -0.90400
O68         O  0.30133004  0.18192322  0.25337215    -0.76400
O69         O  0.27613132  0.24046244  0.28198882    -0.85900
O70         O  0.32785126  0.24168248  0.24098842    -0.85600
O71         O  0.29349081  0.30117393  0.30525980    -0.72300
O72         O  0.34270403  0.30137286  0.26765351    -0.84500
Zr73       Zr  0.26069827  0.31512394  0.20911657     2.26400
Zr74       Zr  0.24350108  0.28503821  0.29104371     2.06300
Zr75       Zr  0.34377477  0.28626539  0.21371390     2.10000
Zr76       Zr  0.27786357  0.22636767  0.22806642     1.78800
O77         O  0.38331341  0.32496897  0.21126732    -0.93300
O78         O  0.23368936  0.19771209  0.24627397    -0.41100
O79         O  0.29369844  0.27043510  0.19878630    -0.77700
O80         O  0.24392442  0.27034046  0.23676696    -0.96400
O81         O  0.25870499  0.32966403  0.26304157    -0.89700
O82         O  0.31089895  0.33085797  0.22227575    -0.92500
C83         C  0.31890392  0.17810341  0.27672159     1.01200
C84         C  0.39737819  0.24544768  0.25709174     1.14100
C85         C  0.27333320  0.24961916  0.35673997     1.04900
O86         O  0.20395168  0.24648723  0.29543147    -0.94700
O87         O  0.19761497  0.31091625  0.27281201    -0.90400
O88         O  0.20687025  0.32842332  0.22357810    -0.83600
C89         C  0.18960023  0.32516780  0.24813862     1.11600
O90         O  0.33856603  0.35573758  0.32204395    -0.96700
Zr91       Zr  0.30847315  0.34566923  0.27592027     1.88900
O92         O  0.25818882  0.37077041  0.20868921    -0.73300
O93         O  0.21817758  0.31951724  0.32981025    -0.52600
O94         O  0.28141967  0.37840242  0.31500006    -0.97300
O95         O  0.35302218  0.37599016  0.26214013    -0.54500
O96         O  0.28479430  0.38997856  0.24927328    -0.73800
C97         C  0.26748277  0.39320533  0.22550649     0.98500
O98         O  0.22454869  0.30844595  0.16714349    -0.62700
O99         O  0.36870053  0.25228101  0.17414963    -0.57500
O100        O  0.28700219  0.32411288  0.15850620    -0.94100
O101        O  0.33675177  0.30731617  0.16231830    -0.92600
O102        O  0.30319472  0.19497565  0.18677257    -0.92900
O103        O  0.24518196  0.21416704  0.18442823    -0.91700
C104        C  0.31459693  0.31971798  0.14732101     1.17400
H105        H  0.34215259  0.22457934  0.23664145     0.33300
H106        H  0.22347702  0.26520717  0.23055572     0.44200
H107        H  0.31751328  0.34778197  0.20950916     0.37700
H108        H  0.29357174  0.30646038  0.32725514     0.34200
H109        H  0.23485523  0.17802411  0.23412612     0.25900
H110        H  0.20394110  0.30628022  0.34161133     0.31900
H111        H  0.26791284  0.36423948  0.32649451     0.37800
H112        H  0.31592403  0.20965930  0.17500832     0.32300
H113        H  0.35341982  0.24969334  0.15762608     0.31100
H114        H  0.38952961  0.32575878  0.18890047     0.32800
H115        H  0.34957185  0.39587716  0.27366155     0.31800
H116        H  0.24939594  0.23034843  0.16888547     0.35800
H117        H  0.22281619  0.32904796  0.15738941     0.28500
H118        H  0.36121079  0.24766462  0.35012245     0.32700
H119        H  0.35713295  0.34210454  0.31930110     0.35600
H120        H  0.38494097  0.26482709  0.16445317     0.28200
H121        H  0.23550400  0.29507692  0.15127550     0.41100
H122        H  0.21331464  0.22961394  0.30774015     0.31100
H123        H  0.23862381  0.19165755  0.26782902     0.38700
H124        H  0.35042873  0.38136934  0.23995220     0.30600
H125        H  0.23424217  0.32467747  0.34479494     0.30700
H126        H  0.34838116  0.28198380  0.35170184     0.30900
C127        C  0.36563382  0.00411048  0.31069485     0.80100
N128        N  0.35619312  0.03200610  0.29975575    -0.78200
C129        C  0.36584451  0.05854919  0.31309123     0.82600
N130        N  0.38468763  0.05714717  0.33781051    -0.78100
C131        C  0.39417998  0.02953198  0.34936205     0.82700
N132        N  0.38482438  0.00300464  0.33536043    -0.79800
Zr133      Zr  0.32087361  0.82319454  0.21430435     2.17500
O134        O  0.31083418  0.86518011  0.17814697    -0.51400
O135        O  0.37610501  0.82460992  0.21320637    -0.74600
O136        O  0.33273173  0.87288067  0.23875598    -0.81400
O137        O  0.31624006  0.75808714  0.15381967    -0.83200
O138        O  0.31487465  0.87208450  0.28919610    -0.78800
O139        O  0.33276340  0.80732201  0.16020539    -0.90400
O140        O  0.39537945  0.78490302  0.24130772    -0.76400
O141        O  0.33635390  0.81275148  0.26599534    -0.85900
O142        O  0.33674564  0.76997424  0.21544891    -0.85600
O143        O  0.27647060  0.83519517  0.24694226    -0.72300
O144        O  0.27690370  0.79468644  0.19927160    -0.84500
Zr145      Zr  0.26369689  0.74151236  0.28563275     2.26400
Zr146      Zr  0.29212305  0.82282538  0.29865933     2.06300
Zr147      Zr  0.29285009  0.74128892  0.20189109     2.10000
Zr148      Zr  0.35215807  0.75987727  0.26706024     1.78800
O149        O  0.25733495  0.73284486  0.15972609    -0.93300
O150        O  0.38248662  0.78036114  0.30936006    -0.41100
O151        O  0.30864387  0.72971326  0.25362845    -0.77700
O152        O  0.30804979  0.76944218  0.30110204    -0.96400
O153        O  0.24823643  0.79468753  0.28465476    -0.89700
O154        O  0.24832257  0.75229506  0.23386654    -0.92500
C155        C  0.39854904  0.80827563  0.22334567     1.01200
C156        C  0.32937754  0.78234710  0.14407718     1.14100
C157        C  0.32835350  0.88507296  0.26616977     1.04900
O158        O  0.32954746  0.82841517  0.33951629    -0.94700
O159        O  0.26574431  0.80670193  0.34571442    -0.90400
O160        O  0.24804123  0.75812072  0.33848328    -0.83600
C161        C  0.25147976  0.78284488  0.35494029     1.11600
O162        O  0.22040516  0.84726871  0.19755356    -0.96700
Zr163      Zr  0.23311281  0.80554789  0.23309697     1.88900
O164        O  0.20842404  0.74203727  0.28799896    -0.73300
O165        O  0.25928618  0.86630183  0.31704104    -0.52600
O166        O  0.20573272  0.84768885  0.26127561    -0.97300
O167        O  0.20149409  0.79000147  0.18964922    -0.54500
O168        O  0.18976266  0.78152619  0.25875563    -0.73800
C169        C  0.18645914  0.75884165  0.27741132     0.98500
O170        O  0.27375376  0.69979128  0.32205044    -0.62700
O171        O  0.32845463  0.69953101  0.18487231    -0.57500
O172        O  0.25219160  0.69134694  0.26203246    -0.94100
O173        O  0.27104361  0.69141238  0.21190857    -0.92600
O174        O  0.38111099  0.71684789  0.24208243    -0.92900
O175        O  0.36775570  0.72043166  0.30398255    -0.91700
C176        C  0.25725039  0.67864679  0.23494247     1.17400
H177        H  0.35369185  0.76538208  0.20099304     0.33300
H178        H  0.31319785  0.76429498  0.32226834     0.44200
H179        H  0.23158971  0.73951930  0.22772229     0.37700
H180        H  0.27105861  0.85698161  0.24578325     0.34200
H181        H  0.40397293  0.77396638  0.30381357     0.25900
H182        H  0.23968615  0.85709881  0.32376618     0.31900
H183        H  0.18679423  0.85156668  0.24943669     0.37800
H184        H  0.36672599  0.69950427  0.24199711     0.32300
H185        H  0.32314791  0.69504479  0.16293539     0.31100
H186        H  0.26824073  0.71780079  0.14539992     0.32800
H187        H  0.18073359  0.79879035  0.19493164     0.31800
H188        H  0.34865620  0.70944733  0.30901715     0.35800
H189        H  0.28932103  0.68611477  0.31114535     0.28500
H190        H  0.29952642  0.88144192  0.19067406     0.32700
H191        H  0.24054029  0.85486225  0.19027308     0.35600
H192        H  0.34877322  0.70917961  0.18335649     0.28200
H193        H  0.28509901  0.70943620  0.33925637     0.41100
H194        H  0.32594108  0.84974395  0.34784087     0.31100
H195        H  0.38184141  0.80307555  0.30659295     0.38700
H196        H  0.19937765  0.76737349  0.19168415     0.30600
H197        H  0.26859598  0.87340124  0.33667552     0.30700
H198        H  0.29524546  0.85711259  0.16391931     0.30900
Zr199      Zr  0.75401598  0.25187911  0.29495920     2.17500
O200        O  0.71918318  0.26345794  0.33924590    -0.51400
O201        O  0.75234470  0.19637540  0.29807977    -0.74600
O202        O  0.70155432  0.24079784  0.27980381    -0.81400
O203        O  0.82780860  0.24879408  0.34085134    -0.83200
O204        O  0.69403940  0.26168170  0.23194721    -0.78800
O205        O  0.77671471  0.23878830  0.34455872    -0.90400
O206        O  0.78392491  0.17595935  0.25968733    -0.76400
O207        O  0.75429714  0.23712952  0.24122597    -0.85900
O208        O  0.80487802  0.23333349  0.28199596    -0.85600
O209        O  0.73929285  0.29798913  0.26786622    -0.72300
O210        O  0.78709084  0.29402765  0.30619309    -0.84500
Zr211      Zr  0.82519985  0.30717169  0.21094444     2.26400
Zr212      Zr  0.74189365  0.28326885  0.21367546     2.06300
Zr213      Zr  0.83798007  0.27518445  0.29174768     2.10000
Zr214      Zr  0.80479308  0.21844335  0.22865895     1.78800
O215        O  0.85731118  0.30570697  0.33490852    -0.93300
O216        O  0.77427942  0.19143495  0.19043540    -0.41100
O217        O  0.83918414  0.26037521  0.23761912    -0.77700
O218        O  0.79270391  0.26435981  0.19981726    -0.96400
O219        O  0.77437480  0.32541550  0.22381474    -0.89700
O220        O  0.82405185  0.32134326  0.26498163    -0.92500
C221        C  0.76546814  0.17339061  0.28343416     1.01200
C222        C  0.80410219  0.23809901  0.35509721     1.14100
C223        C  0.68492812  0.24686690  0.25607208     1.04900
O224        O  0.72282241  0.25071756  0.17188962    -0.94700
O225        O  0.75284098  0.30675758  0.16376406    -0.90400
O226        O  0.80248906  0.32065523  0.16083036    -0.83600
C227        C  0.77558945  0.31885472  0.14922769     1.11600
O228        O  0.73505684  0.35356376  0.31819961    -0.96700
Zr229      Zr  0.77329485  0.33952955  0.27761941     1.88900
O230        O  0.82454557  0.36313332  0.20971301    -0.73300
O231        O  0.70348125  0.32449657  0.20689974    -0.52600
O232        O  0.73192048  0.37384254  0.26038733    -0.97300
O233        O  0.79577083  0.36588350  0.32191068    -0.54500
O234        O  0.79787986  0.38277830  0.25220476    -0.73800
C235        C  0.81428063  0.38570803  0.22714411     0.98500
O236        O  0.86129559  0.29428968  0.16801578    -0.62700
O237        O  0.87948838  0.23628633  0.29120337    -0.57500
O238        O  0.87768102  0.31958615  0.22588062    -0.94100
O239        O  0.88531132  0.29900416  0.27383631    -0.92600
O240        O  0.84948225  0.18513313  0.23848613    -0.92900
O241        O  0.83556371  0.20203701  0.18278117    -0.91700
C242        C  0.89437207  0.31403294  0.24975598     1.17400
H243        H  0.81091270  0.21577805  0.29431707     0.33300
H244        H  0.79405270  0.25933167  0.17775156     0.44200
H245        H  0.83813591  0.33760052  0.26944453     0.37700
H246        H  0.71853758  0.30438540  0.27395151     0.34200
H247        H  0.78280899  0.16995176  0.18977052     0.25900
H248        H  0.68959334  0.31625684  0.19101106     0.31900
H249        H  0.73632128  0.37692003  0.23786229     0.37800
H250        H  0.84167658  0.16383277  0.23832173     0.32300
H251        H  0.88829591  0.23782213  0.31224860     0.31100
H252        H  0.87270028  0.29191619  0.34476497     0.32800
H253        H  0.81743111  0.36900181  0.31546366     0.31800
H254        H  0.84619206  0.22090221  0.17620596     0.35800
H255        H  0.87858696  0.28291338  0.17768709     0.28500
H256        H  0.70896856  0.24370552  0.34345724     0.32700
H257        H  0.73051166  0.33379053  0.32850118     0.35600
H258        H  0.86918257  0.21618028  0.29085700     0.28200
H259        H  0.85095711  0.27819092  0.15575948     0.41100
H260        H  0.74140978  0.24039977  0.16231239     0.31100
H261        H  0.75369857  0.18975700  0.20049844     0.38700
H262        H  0.79695206  0.35005277  0.33836370     0.30600
H263        H  0.69111060  0.32527346  0.22660694     0.30700
H264        H  0.70284008  0.27719351  0.33092493     0.30900
C265        C  0.73456649  0.05693270  0.33976200     0.80100
N266        N  0.74951422  0.02964810  0.33279246    -0.78200
C267        C  0.74006831  0.00298098  0.34587751     0.82600
N268        N  0.71494778  0.00383620  0.36528164    -0.78100
C269        C  0.69949593  0.03088516  0.37249874     0.82700
N270        N  0.70945930  0.05740633  0.35940223    -0.79800
Zr271      Zr  0.82936494  0.82111571  0.28340527     2.17500
O272        O  0.86723191  0.86100266  0.27607719    -0.51400
O273        O  0.83090651  0.82066500  0.33967323    -0.74600
O274        O  0.80692752  0.87159594  0.29797001    -0.81400
O275        O  0.89159574  0.75993296  0.26269611    -0.83200
O276        O  0.75567935  0.86995678  0.28854239    -0.78800
O277        O  0.88305393  0.80467927  0.29066980    -0.90400
O278        O  0.80433975  0.78026064  0.35838489    -0.76400
O279        O  0.78000694  0.80873088  0.30419576    -0.85900
O280        O  0.83076659  0.76720110  0.29365537    -0.85600
O281        O  0.79365390  0.83513053  0.24347230    -0.72300
O282        O  0.84239722  0.79705275  0.23378445    -0.84500
Zr283      Zr  0.75861816  0.74207263  0.22467035     2.26400
Zr284      Zr  0.74451539  0.82068429  0.26427719     2.06300
Zr285      Zr  0.84285969  0.74292322  0.24433671     2.10000
Zr286      Zr  0.78138890  0.75486857  0.31379551     1.78800
O287        O  0.87672434  0.73727414  0.19838096    -0.93300
O288        O  0.73650995  0.76946905  0.34638570    -0.41100
O289        O  0.79379380  0.72904523  0.26490444    -0.77700
O290        O  0.74495173  0.76639677  0.27422362    -0.96400
O291        O  0.75659088  0.79618455  0.21524262    -0.89700
O292        O  0.80780231  0.75497289  0.20411958    -0.92500
C293        C  0.82120872  0.80383770  0.36204837     1.01200
C294        C  0.90042548  0.78195868  0.28037348     1.14100
C295        C  0.77957361  0.88348608  0.29823577     1.04900
O296        O  0.70776220  0.82639943  0.30796599    -0.94700
O297        O  0.69705791  0.80307252  0.24270645    -0.90400
O298        O  0.70590579  0.75823208  0.21488081    -0.83600
C299        C  0.68863606  0.78108554  0.22466322     1.11600
O300        O  0.83699420  0.85380919  0.18511445    -0.96700
Zr301      Zr  0.80544947  0.80908978  0.19465787     1.88900
O302        O  0.75346479  0.74463989  0.16858392    -0.73300
O303        O  0.71668485  0.86018204  0.23541441    -0.52600
O304        O  0.78023873  0.85272854  0.16939515    -0.97300
O305        O  0.84615843  0.79373614  0.15702592    -0.54500
O306        O  0.77540774  0.78880178  0.15196839    -0.73800
C307        C  0.75932117  0.76471638  0.14762641     0.98500
O308        O  0.72360253  0.70067905  0.23699792    -0.62700
O309        O  0.86800471  0.70122602  0.27277922    -0.57500
O310        O  0.78156988  0.69145492  0.21042028    -0.94100
O311        O  0.83159057  0.69224177  0.22462253    -0.92600
O312        O  0.80885333  0.71368936  0.34083944    -0.92900
O313        O  0.75193261  0.70916363  0.32533909    -0.91700
C314        C  0.80841225  0.67879090  0.21335581     1.17400
H315        H  0.84608605  0.76195848  0.30878975     0.33300
H316        H  0.72478771  0.76016746  0.28110399     0.44200
H317        H  0.81296941  0.74318078  0.18528227     0.37700
H318        H  0.79383183  0.85714702  0.23994762     0.34200
H319        H  0.73892832  0.75751419  0.36576056     0.25900
H320        H  0.70168267  0.86957401  0.25078466     0.31900
H321        H  0.76730536  0.86294731  0.18607832     0.37800
H322        H  0.82819486  0.72288399  0.34766039     0.32300
H323        H  0.88871452  0.69852445  0.26288142     0.31100
H324        H  0.89196106  0.72093970  0.20389898     0.32800
H325        H  0.84500935  0.80950818  0.14051868     0.31800
H326        H  0.75678728  0.69464764  0.30767432     0.35800
H327        H  0.73517367  0.68701567  0.25119672     0.28500
H328        H  0.86851444  0.87144667  0.29674120     0.32700
H329        H  0.85127280  0.85420269  0.20276092     0.35600
H330        H  0.87167753  0.70999846  0.29381772     0.28200
H331        H  0.70729932  0.71047765  0.25065977     0.41100
H332        H  0.69293585  0.80974570  0.30489896     0.31100
H333        H  0.73983249  0.79117966  0.35285101     0.38700
H334        H  0.83897939  0.77465308  0.14680525     0.30600
H335        H  0.73162779  0.87650549  0.23141806     0.30700
H336        H  0.85734942  0.87655035  0.26253623     0.30900
C337        C  0.01394598  0.73453509  0.32569618     0.80100
N338        N  0.04236282  0.74091458  0.31423754    -0.78200
C339        C  0.06712643  0.72296991  0.32177779     0.82600
N340        N  0.06331137  0.69860187  0.34087042    -0.78100
C341        C  0.03499325  0.69152887  0.35206806     0.82700
N342        N  0.01041688  0.70967862  0.34439618    -0.79800
C343        C  0.35974148  0.35123719  0.96969929     0.80100
N344        N  0.38380387  0.37059253  0.96844493    -0.78200
C345        C  0.39538818  0.38309475  0.99484572     0.82600
N346        N  0.38261337  0.37513811  0.02297989    -0.78100
C347        C  0.35894027  0.35525207  0.02461891     0.82700
N348        N  0.34746672  0.34359446  0.99785934    -0.79800
Zr349      Zr  0.25666861  0.32090970  0.70235480     2.17500
O350        O  0.27195073  0.35527746  0.66053098    -0.51400
O351        O  0.20118348  0.32242992  0.69767601    -0.74600
O352        O  0.24478635  0.29545038  0.65247640    -0.81400
O353        O  0.26027478  0.38354818  0.76516915    -0.83200
O354        O  0.25790020  0.24475572  0.65909320    -0.78800
O355        O  0.24186874  0.37458759  0.71658762    -0.90400
O356        O  0.18073056  0.29410504  0.73701502    -0.76400
O357        O  0.23942119  0.27082057  0.71515598    -0.85900
O358        O  0.23966049  0.32239162  0.75566885    -0.85600
O359        O  0.30116113  0.28697558  0.69418659    -0.72300
O360        O  0.30087773  0.33511210  0.73190873    -0.84500
Zr361      Zr  0.30850593  0.25184226  0.79088233     2.26400
Zr362      Zr  0.28311126  0.23715191  0.70781290     2.06300
Zr363      Zr  0.28285476  0.33644191  0.78516923     2.10000
Zr364      Zr  0.22226752  0.27260796  0.76819726     1.78800
O365        O  0.31921185  0.37750472  0.79286528    -0.93300
O366        O  0.19409577  0.22661689  0.75464523    -0.41100
O367        O  0.26497910  0.28662956  0.79934856    -0.77700
O368        O  0.26515327  0.23699892  0.76102804    -0.96400
O369        O  0.32632167  0.24986655  0.73791067    -0.89700
O370        O  0.32623296  0.30197991  0.77835255    -0.92500
C371        C  0.17836446  0.31115967  0.71273754     1.01200
C372        C  0.24573221  0.39189144  0.74086835     1.14100
C373        C  0.24623915  0.26690437  0.64328570     1.04900
O374        O  0.24859580  0.19386909  0.70538377    -0.94700
O375        O  0.31155983  0.19216864  0.72422197    -0.90400
O376        O  0.32262713  0.19797534  0.77571309    -0.83600
C377        C  0.32314878  0.18259560  0.74960717     1.11600
O378        O  0.36213863  0.33129464  0.68303218    -0.96700
Zr379      Zr  0.34436832  0.29934955  0.72586346     1.88900
O380        O  0.36305876  0.24584163  0.79512636    -0.73300
O381        O  0.31468512  0.21872097  0.66322582    -0.52600
O382        O  0.37308233  0.26953243  0.68558364    -0.97300
O383        O  0.37656608  0.34216033  0.74069376    -0.54500
O384        O  0.38506184  0.27330500  0.75637386    -0.73800
C385        C  0.38658510  0.25511300  0.78007518     0.98500
O386        O  0.29225278  0.21867902  0.83329776    -0.62700
O387        O  0.24498677  0.35752125  0.82318055    -0.57500
O388        O  0.32049856  0.27847304  0.84013031    -0.94100
O389        O  0.30387441  0.32871580  0.83634325    -0.92600
O390        O  0.18829299  0.30072097  0.80553531    -0.92900
O391        O  0.20904473  0.24440298  0.81525325    -0.91700
C392        C  0.31675881  0.30636549  0.85100511     1.17400
H393        H  0.22286379  0.33715448  0.75906914     0.33300
H394        H  0.25920290  0.21641110  0.76666655     0.44200
H395        H  0.34269531  0.30802786  0.79163681     0.37700
H396        H  0.30743156  0.28688174  0.67237806     0.34200
H397        H  0.17348472  0.23014160  0.76455533     0.25900
H398        H  0.33605916  0.21957980  0.67047141     0.31900
H399        H  0.38666420  0.25512885  0.69702646     0.37800
H400        H  0.18706238  0.32228343  0.79809896     0.32300
H401        H  0.24057971  0.34014812  0.83726773     0.31100
H402        H  0.30809268  0.39289652  0.80664170     0.32800
H403        H  0.39785796  0.33459131  0.73585435     0.31800
H404        H  0.22525884  0.22796925  0.81653975     0.35800
H405        H  0.31094179  0.21512715  0.84562360     0.28500
H406        H  0.25327662  0.35829594  0.64805760     0.32700
H407        H  0.34398162  0.33417894  0.66978378     0.35600
H408        H  0.25635091  0.37230292  0.83612125     0.28200
H409        H  0.27865093  0.23214494  0.84686833     0.41100
H410        H  0.24931867  0.18709205  0.68317378     0.31100
H411        H  0.19059656  0.22832935  0.73196131     0.38700
H412        H  0.37526029  0.34325696  0.76379669     0.30600
H413        H  0.31065186  0.19634195  0.66133574     0.30700
H414        H  0.28620548  0.34256949  0.64691240     0.30900
C415        C  0.35937704  0.00538601  0.70949427     0.80100
N416        N  0.35295280  0.03293049  0.72407102    -0.78200
C417        C  0.36262902  0.05973807  0.71164836     0.82600
N418        N  0.37914673  0.05838822  0.68408838    -0.78100
C419        C  0.38550375  0.03092122  0.66899391     0.82700
N420        N  0.37548683  0.00445673  0.68197932    -0.79800
Zr421      Zr  0.26901311  0.74061985  0.70721517     2.17500
O422        O  0.28483128  0.70437866  0.66535183    -0.51400
O423        O  0.21388923  0.73419772  0.70775350    -0.74600
O424        O  0.25981961  0.68883037  0.72621179    -0.81400
O425        O  0.26154220  0.81152751  0.65744666    -0.83200
O426        O  0.27892347  0.68560070  0.77495779    -0.78800
O427        O  0.25320026  0.75965285  0.65683724    -0.90400
O428        O  0.19199120  0.76283036  0.74774361    -0.76400
O429        O  0.25581872  0.74188545  0.76125654    -0.85900
O430        O  0.24601720  0.79017721  0.71880287    -0.85600
O431        O  0.31673063  0.73085464  0.73289029    -0.72300
O432        O  0.30755713  0.77714852  0.69369732    -0.84500
Zr433      Zr  0.31807255  0.81935671  0.78746529     2.26400
Zr434      Zr  0.30288508  0.73362860  0.78714825     2.06300
Zr435      Zr  0.28416355  0.82659038  0.70653452     2.10000
Zr436      Zr  0.23279286  0.79114653  0.77283487     1.78800
O437        O  0.31261760  0.84918582  0.66331182    -0.93300
O438        O  0.20723245  0.76430080  0.81533289    -0.41100
O439        O  0.27065262  0.82887943  0.76104400    -0.77700
O440        O  0.27941998  0.78282934  0.80042021    -0.96400
O441        O  0.34151369  0.76992892  0.77559436    -0.89700
O442        O  0.33125840  0.81821333  0.73298853    -0.92500
C443        C  0.19051105  0.74397808  0.72433686     1.01200
C444        C  0.25205994  0.78660409  0.64463836     1.14100
C445        C  0.26431438  0.67459748  0.75194897     1.04900
O446        O  0.27370315  0.71814647  0.83328597    -0.94700
O447        O  0.32936080  0.74742715  0.83343258    -0.90400
O448        O  0.32794051  0.79954353  0.83983377    -0.83600
C449        C  0.33221818  0.77195593  0.85008257     1.11600
O450        O  0.37120953  0.73482574  0.67816586    -0.96700
Zr451      Zr  0.35436647  0.76894726  0.72141656     1.88900
O452        O  0.37331090  0.82369945  0.78898571    -0.73300
O453        O  0.34170918  0.69240568  0.79221987    -0.52600
O454        O  0.38999283  0.72781124  0.73701081    -0.97300
O455        O  0.37951281  0.79463854  0.67784022    -0.54500
O456        O  0.39467915  0.79774515  0.74682983    -0.73800
C457        C  0.39634209  0.81497851  0.77144226     0.98500
O458        O  0.30321605  0.85769126  0.82792202    -0.62700
O459        O  0.23984936  0.86192526  0.70262309    -0.57500
O460        O  0.32394968  0.87247233  0.77018730    -0.94100
O461        O  0.30107127  0.87695153  0.72304745    -0.92600
O462        O  0.19719364  0.83261096  0.75814752    -0.92900
O463        O  0.21856580  0.82349304  0.81825479    -0.91700
C464        C  0.31552986  0.88798765  0.74628828     1.17400
H465        H  0.22795888  0.79395247  0.70660943     0.33300
H466        H  0.27446099  0.78384433  0.82253493     0.44200
H467        H  0.34571728  0.83396866  0.72776008     0.37700
H468        H  0.32483380  0.71038166  0.72743062     0.34200
H469        H  0.18525567  0.77051419  0.81403698     0.25900
H470        H  0.36154227  0.70273947  0.78926344     0.31900
H471        H  0.40695619  0.73839800  0.74734598     0.37800
H472        H  0.18812222  0.82533697  0.73846249     0.32300
H473        H  0.24596250  0.87674246  0.68635490     0.31100
H474        H  0.32463551  0.83158068  0.65367702     0.32800
H475        H  0.40149222  0.78836709  0.67907902     0.31800
H476        H  0.23710334  0.83551035  0.82235177     0.35800
H477        H  0.28792209  0.87162737  0.81810917     0.28500
H478        H  0.26641295  0.69211033  0.66143361     0.32700
H479        H  0.35238205  0.72428495  0.67187768     0.35600
H480        H  0.22377425  0.84958774  0.69278809     0.28200
H481        H  0.29090060  0.84634044  0.84349631     0.41100
H482        H  0.28394774  0.69867270  0.83992049     0.31100
H483        H  0.20824419  0.74218649  0.80893304     0.38700
H484        H  0.37879331  0.81692322  0.68357193     0.30600
H485        H  0.34096208  0.68711275  0.81465167     0.30700
H486        H  0.29949579  0.68968057  0.67503112     0.30900
C487        C  0.07297639  0.70312317  0.67993841     0.80100
N488        N  0.07061343  0.67985419  0.65841121    -0.78200
C489        C  0.04258266  0.67017371  0.64947444     0.82600
N490        N  0.01695975  0.68433797  0.66219551    -0.78100
C491        C  0.01888758  0.70744817  0.68378516     0.82700
N492        N  0.04693437  0.71658958  0.69289022    -0.79800
C493        C  0.00226279  0.34981945  0.67954502     0.80100
N494        N  0.00049303  0.36812876  0.65402226    -0.78200
C495        C  0.02610337  0.37872192  0.63957712     0.82600
N496        N  0.05409399  0.37002456  0.65059850    -0.78100
C497        C  0.05641084  0.35188625  0.67624760     0.82700
N498        N  0.03038092  0.34190576  0.69059850    -0.79800
Zr499      Zr  0.73830843  0.25260197  0.71574444     2.17500
O500        O  0.69685431  0.26399343  0.68009653    -0.51400
O501        O  0.73227616  0.19765105  0.72212866    -0.74600
O502        O  0.75290894  0.23106440  0.66386123    -0.81400
O503        O  0.69030682  0.27286427  0.78769741    -0.83200
O504        O  0.80402638  0.23954608  0.65704672    -0.78800
O505        O  0.68773989  0.24697031  0.74132495    -0.90400
O506        O  0.76764510  0.18002603  0.75643123    -0.76400
O507        O  0.78926616  0.23154321  0.72024527    -0.85900
O508        O  0.74673188  0.24434393  0.76985304    -0.85600
O509        O  0.77151478  0.29116003  0.69457790    -0.72300
O510        O  0.73110336  0.30280078  0.74046261    -0.84500
Zr511      Zr  0.82395210  0.31023201  0.77996671     2.26400
Zr512      Zr  0.82241495  0.26987998  0.70032314     2.06300
Zr513      Zr  0.74009899  0.29393545  0.79444508     2.10000
Zr514      Zr  0.79727496  0.22326050  0.77421096     1.78800
O515        O  0.70391224  0.33761093  0.80179306    -0.93300
O516        O  0.83546113  0.18456925  0.75549322    -0.41100
O517        O  0.79052258  0.27220187  0.80072877    -0.77700
O518        O  0.83203539  0.26065004  0.75429714    -0.96400
O519        O  0.81631932  0.31893984  0.72597986    -0.89700
O520        O  0.77351221  0.33216763  0.77534392    -0.92500
C521        C  0.74521170  0.17627558  0.73802117     1.01200
C522        C  0.67639349  0.25588280  0.76814034     1.14100
C523        C  0.77854566  0.22853051  0.64824740     1.04900
O524        O  0.86200213  0.22978837  0.69016274    -0.94700
O525        O  0.87176541  0.29350751  0.70585363    -0.90400
O526        O  0.87334814  0.31723360  0.75371397    -0.83600
C527        C  0.88490241  0.30976774  0.72666910     1.11600
O528        O  0.72975567  0.35349423  0.68087569    -0.96700
Zr529      Zr  0.76616396  0.34051799  0.72129532     1.88900
O530        O  0.82944277  0.36531520  0.77580359    -0.73300
O531        O  0.83349704  0.29628450  0.65163968    -0.52600
O532        O  0.79085344  0.36293289  0.67560233    -0.97300
O533        O  0.72569003  0.37689945  0.73968183    -0.54500
O534        O  0.79591184  0.38387689  0.74025957    -0.73800
C535        C  0.81750735  0.38725539  0.75989311     0.98500
O536        O  0.86464551  0.29978702  0.81679620    -0.62700
O537        O  0.72378950  0.27074503  0.84344057    -0.57500
O538        O  0.81068073  0.32688311  0.83344029    -0.94100
O539        O  0.75992422  0.31715445  0.84098320    -0.92600
O540        O  0.77679502  0.19988884  0.82154294    -0.92900
O541        O  0.83605530  0.21403430  0.81330667    -0.91700
C542        C  0.78571749  0.32699349  0.85009680     1.17400
H543        H  0.73238422  0.22996808  0.77851434     0.33300
H544        H  0.85302775  0.25343481  0.75675552     0.44200
H545        H  0.77072952  0.35112032  0.78744399     0.37700
H546        H  0.76745335  0.29385769  0.67268094     0.34200
H547        H  0.82890724  0.17875604  0.73426460     0.25900
H548        H  0.83982964  0.31719837  0.65812984     0.31900
H549        H  0.78875768  0.34739162  0.65861712     0.37800
H550        H  0.75424986  0.19982634  0.81912973     0.32300
H551        H  0.70317981  0.28009177  0.84836922     0.31100
H552        H  0.71493467  0.35294710  0.81437909     0.32800
H553        H  0.72961187  0.39620994  0.72828721     0.31800
H554        H  0.84085923  0.23492478  0.82129225     0.35800
H555        H  0.87932254  0.28532686  0.80564678     0.28500
H556        H  0.69121159  0.24359950  0.67146207     0.32700
H557        H  0.71555994  0.33600056  0.68065223     0.35600
H558        H  0.72002083  0.24884056  0.83807577     0.28200
H559        H  0.87565255  0.31945900  0.81851424     0.41100
H560        H  0.85066894  0.21033800  0.68824266     0.31100
H561        H  0.85453239  0.19608631  0.75197192     0.38700
H562        H  0.73068458  0.38185607  0.76158402     0.30600
H563        H  0.85261105  0.28596812  0.64323700     0.30700
H564        H  0.70674842  0.27463365  0.66234681     0.30900
C565        C  0.70073331  0.05718998  0.70661140     0.80100
N566        N  0.71181767  0.02911317  0.71520885    -0.78200
C567        C  0.70066102  0.00290153  0.70256735     0.82600
N568        N  0.67837570  0.00526378  0.68109807    -0.78100
C569        C  0.66727970  0.03329895  0.67187497     0.82700
N570        N  0.67832767  0.05919536  0.68520437    -0.79800
Zr571      Zr  0.76327124  0.82618524  0.79262047     2.17500
O572        O  0.77235411  0.86472822  0.83320588    -0.51400
O573        O  0.70796540  0.83285164  0.78817123    -0.74600
O574        O  0.75321171  0.87640674  0.76909202    -0.81400
O575        O  0.76498610  0.76239894  0.85255401    -0.83200
O576        O  0.76898081  0.87154299  0.71827752    -0.78800
O577        O  0.74488199  0.81083632  0.84484144    -0.90400
O578        O  0.69107964  0.79465898  0.75641238    -0.76400
O579        O  0.75023432  0.81501567  0.74003134    -0.85900
O580        O  0.74868461  0.77372044  0.78995150    -0.85600
O581        O  0.80905488  0.83518018  0.76151766    -0.72300
O582        O  0.80811657  0.79708321  0.80836352    -0.84500
Zr583      Zr  0.82336288  0.74027032  0.72177725     2.26400
Zr584      Zr  0.79539784  0.82267907  0.70904463     2.06300
Zr585      Zr  0.79268478  0.74455020  0.80574253     2.10000
Zr586      Zr  0.73506940  0.76286751  0.73790161     1.78800
O587        O  0.83147709  0.74139128  0.84572286    -0.93300
O588        O  0.70641153  0.77696654  0.69181269    -0.41100
O589        O  0.77823914  0.73149603  0.75356810    -0.77700
O590        O  0.77962461  0.77027133  0.70516317    -0.96400
O591        O  0.83915187  0.79245650  0.72319882    -0.89700
O592        O  0.83760607  0.75149511  0.77410206    -0.92500
C593        C  0.68667051  0.81886344  0.77391494     1.01200
C594        C  0.74874588  0.78631901  0.86126487     1.14100
C595        C  0.75578807  0.88656308  0.74111674     1.04900
O596        O  0.76172206  0.83017350  0.66491437    -0.94700
O597        O  0.82477871  0.80434142  0.66355226    -0.90400
O598        O  0.83994364  0.75387306  0.66904588    -0.83600
C599        C  0.83817083  0.77914951  0.65369704     1.11600
O600        O  0.86722981  0.84673134  0.80857459    -0.96700
Zr601      Zr  0.85298071  0.80370094  0.77507871     1.88900
O602        O  0.87868326  0.73617166  0.72049518    -0.73300
O603        O  0.82759142  0.86546423  0.69399685    -0.52600
O604        O  0.87987754  0.84280564  0.74546891    -0.97300
O605        O  0.88470680  0.78944292  0.81903520    -0.54500
O606        O  0.89695362  0.77396877  0.75186917    -0.73800
C607        C  0.90062067  0.75055671  0.73304514     0.98500
O608        O  0.81245625  0.69855648  0.68506690    -0.62700
O609        O  0.76029979  0.70664969  0.83089315    -0.57500
O610        O  0.83376267  0.69033505  0.74503675    -0.94100
O611        O  0.81361309  0.69306143  0.79447277    -0.92600
O612        O  0.70278082  0.72714368  0.76628345    -0.92900
O613        O  0.72430156  0.71887648  0.70411007    -0.91700
C614        C  0.82839828  0.67888055  0.77205353     1.17400
H615        H  0.73104881  0.77011999  0.80332154     0.33300
H616        H  0.77515578  0.76505938  0.68377032     0.44200
H617        H  0.85404134  0.73808036  0.78056791     0.37700
H618        H  0.81420305  0.85672227  0.76306970     0.34200
H619        H  0.68503689  0.77102566  0.69665892     0.25900
H620        H  0.84728975  0.85568053  0.68647684     0.31900
H621        H  0.89302481  0.83107291  0.72996514     0.37800
H622        H  0.71678329  0.70957141  0.77133116     0.32300
H623        H  0.75383200  0.69283056  0.81377364     0.31100
H624        H  0.82635043  0.75884154  0.86035565     0.32800
H625        H  0.88912183  0.76696049  0.81624947     0.31800
H626        H  0.74428344  0.71329175  0.69371252     0.35800
H627        H  0.79774859  0.68543603  0.69639067     0.28500
H628        H  0.75198047  0.87479557  0.83767639     0.32700
H629        H  0.84840159  0.85186518  0.82125552     0.35600
H630        H  0.77431971  0.69368698  0.84342228     0.28200
H631        H  0.80005758  0.70849715  0.66870691     0.41100
H632        H  0.76811346  0.81403500  0.64924199     0.31100
H633        H  0.70555670  0.79989197  0.69219198     0.38700
H634        H  0.87066704  0.79106007  0.83756003     0.30600
H635        H  0.81812329  0.87380796  0.67495546     0.30700
H636        H  0.78453712  0.88076454  0.82278203     0.30900
C637        C  0.37241422  0.73504314  0.97135667     0.80100
N638        N  0.36678612  0.75131410  0.99823363    -0.78200
C639        C  0.37896564  0.74161631  0.02540632     0.82600
N640        N  0.39707399  0.71535180  0.02521805    -0.78100
C641        C  0.40353056  0.69916508  0.99816893     0.82700
N642        N  0.39067965  0.70914061  0.97148723    -0.79800
C643        C  0.74364050  0.36757198  0.02713530     0.80100
N644        N  0.76072640  0.35919699  0.00121781    -0.78200
C645        C  0.75271503  0.36983499  0.97270967     0.82600
N646        N  0.72775869  0.38923030  0.97040615    -0.78100
C647        C  0.71050155  0.39785914  0.99599908     0.82700
N648        N  0.71888762  0.38695995  0.02423429    -0.79800
C649        C  0.70077541  0.73517760  0.03195994     0.80100
N650        N  0.70837260  0.75185372  0.00663391    -0.78200
C651        C  0.69937150  0.74349206  0.97777410     0.82600
N652        N  0.68152195  0.71815228  0.97464901    -0.78100
C653        C  0.67274222  0.70147558  0.00005209     0.82700
N654        N  0.68298101  0.71016623  0.02860089    -0.79800
C655        C  0.57066222  0.19336987  0.22494269     0.80100
N656        N  0.57326605  0.17667708  0.19778101    -0.78200
C657        C  0.54788899  0.16781250  0.18249706     0.82600
N658        N  0.51967859  0.17580129  0.19514033    -0.78100
C659        C  0.51650939  0.19216606  0.22249059     0.82700
N660        N  0.54231102  0.20137816  0.23691192    -0.79800
C661        C  0.21272450  0.56405811  0.18582591     0.80100
N662        N  0.19471119  0.56457919  0.16031499    -0.78200
C663        C  0.18687219  0.53782395  0.14569786     0.82600
N664        N  0.19715861  0.51031176  0.15717158    -0.78100
C665        C  0.21522429  0.50942730  0.18266815     0.82700
N666        N  0.22318080  0.53638195  0.19656308    -0.79800
C667        C  0.21188022  0.20936804  0.52641070     0.80100
N668        N  0.22837193  0.21672732  0.50030170    -0.78200
C669        C  0.22399962  0.20202819  0.47246677     0.82600
N670        N  0.20235492  0.17990657  0.47067933    -0.78100
C671        C  0.18524490  0.17255454  0.49647001     0.82700
N672        N  0.19026864  0.18749605  0.52397187    -0.79800
N673        N  0.03636639  0.97862593  0.51468414    -0.36700
N674        N  0.08321906  0.02403070  0.50732228    -0.57300
N675        N  0.03463768  0.07286027  0.50335253    -0.36700
N676        N  0.98812891  0.02692287  0.51519581    -0.57300
C677        C  0.06184832  0.96132042  0.52062327     0.26900
C678        C  0.01194335  0.96288251  0.52513654     0.26900
C679        C  0.05998725  0.09003421  0.50637482     0.26900
C680        C  0.00967943  0.09157223  0.50992220     0.26900
C681        C  0.10047487  0.99796747  0.50140783     0.35500
C682        C  0.09975975  0.04788858  0.49687186     0.35500
C683        C  0.97058854  0.00165525  0.51369625     0.35500
C684        C  0.96968471  0.05141988  0.50829411     0.35500
C685        C  0.05351438  0.93424954  0.53519594    -0.22000
C686        C  0.02195398  0.93523674  0.53804146    -0.22000
C687        C  0.05097229  0.12023897  0.51437472    -0.22000
C688        C  0.01928368  0.12120966  0.51654908    -0.22000
C689        C  0.12822036  0.00526680  0.48728389    -0.23000
C690        C  0.12786166  0.03697698  0.48458711    -0.23000
C691        C  0.94075176  0.01012702  0.50631277    -0.23000
C692        C  0.94017326  0.04166214  0.50284556    -0.23000
C693        C  0.09199966  0.96798981  0.51035662    -0.18400
C694        C  0.98092631  0.97115642  0.51994908    -0.18400
C695        C  0.97848774  0.08272224  0.50935691    -0.18400
C696        C  0.09092379  0.07948934  0.50086566    -0.18400
H697        H  0.06855529  0.91537457  0.54224296     0.14500
H698        H  0.00790557  0.91723947  0.54762135     0.14500
H699        H  0.06569270  0.13962929  0.51820653     0.14500
H700        H  0.00496265  0.14143170  0.52245954     0.14500
H701        H  0.14691605  0.98946202  0.48019194     0.12800
H702        H  0.14626199  0.05051689  0.47497961     0.12800
H703        H  0.92140253  0.99518016  0.50384363     0.12800
H704        H  0.92022088  0.05581214  0.49719962     0.12800
H705        H  0.03544225  0.99860228  0.50157804     0.26100
H706        H  0.03440752  0.04991914  0.49595436     0.26100
N707        N  0.55484820  0.98580323  0.01121934    -0.36700
N708        N  0.55622713  0.03231443  0.06039631    -0.57300
N709        N  0.55421804  0.08169388  0.01357081    -0.36700
N710        N  0.54865978  0.03499872  0.96471521    -0.57300
C711        C  0.54991364  0.96844461  0.03685902     0.26900
C712        C  0.54453312  0.96982012  0.98636254     0.26900
C713        C  0.54890123  0.09857121  0.04018589     0.26900
C714        C  0.54682108  0.09993064  0.98918597     0.26900
C715        C  0.56341822  0.00699717  0.07733637     0.35500
C716        C  0.56110988  0.05726888  0.07885170     0.35500
C717        C  0.55084273  0.00988086  0.94545416     0.35500
C718        C  0.55170855  0.06010823  0.94643174     0.35500
C719        C  0.53633790  0.94107880  0.02816666    -0.22000
C720        C  0.53297104  0.94193458  0.99627517    -0.22000
C721        C  0.53858880  0.12811662  0.03256026    -0.22000
C722        C  0.53721051  0.12894536  0.00044915    -0.22000
C723        C  0.57286478  0.01589954  0.10671033    -0.23000
C724        C  0.57122554  0.04771058  0.10774898    -0.23000
C725        C  0.55493657  0.01910615  0.91477572    -0.23000
C726        C  0.55545052  0.05085320  0.91539565    -0.23000
C727        C  0.55875106  0.97604957  0.06759800    -0.18400
C728        C  0.54712226  0.97884194  0.95477577    -0.18400
C729        C  0.54919462  0.09137332  0.95702704    -0.18400
C730        C  0.55403280  0.08842246  0.07110189    -0.18400
H731        H  0.52985185  0.92230427  0.04319648     0.14500
H732        H  0.52344323  0.92391547  0.98193675     0.14500
H733        H  0.53265190  0.14715664  0.04848943     0.14500
H734        H  0.52998048  0.14870409  0.98692452     0.14500
H735        H  0.57954724  0.00102445  0.12565082     0.12800
H736        H  0.57649194  0.06215821  0.12767406     0.12800
H737        H  0.55698555  0.00451899  0.89401228     0.12800
H738        H  0.55798685  0.06545702  0.89522703     0.12800
H739        H  0.56644207  0.00646798  0.01037910     0.26100
H740        H  0.56354296  0.05936646  0.01212970     0.26100
N741        N  0.04006143  0.53343258  0.94509730    -0.36700
N742        N  0.99369514  0.53059432  0.99497748    -0.57300
N743        N  0.04178931  0.53916474  0.04038418    -0.36700
N744        N  0.08871288  0.53771382  0.99001802    -0.57300
C745        C  0.01539131  0.52444069  0.92901788     0.26900
C746        C  0.06516832  0.52789180  0.92637457     0.26900
C747        C  0.01808575  0.52987576  0.05873594     0.26900
C748        C  0.06794988  0.53338103  0.05602804     0.26900
C749        C  0.97476119  0.53253717  0.97046920     0.35500
C750        C  0.97585625  0.53490620  0.02102151     0.35500
C751        C  0.10532297  0.54304004  0.96359618     0.35500
C752        C  0.10622250  0.54577323  0.01432898     0.35500
C753        C  0.02492436  0.51298138  0.89983800    -0.22000
C754        C  0.05628084  0.51518666  0.89814631    -0.22000
C755        C  0.02927466  0.51820095  0.08633891    -0.22000
C756        C  0.06076101  0.52002329  0.08446059    -0.22000
C757        C  0.94466975  0.53762796  0.98100169    -0.23000
C758        C  0.94533616  0.53892032  0.01307576    -0.23000
C759        C  0.13369072  0.55436642  0.97111313    -0.23000
C760        C  0.13429917  0.55605320  0.00329103    -0.23000
C761        C  0.98426246  0.52861761  0.93880773    -0.18400
C762        C  0.09562328  0.53608988  0.93299599    -0.18400
C763        C  0.09791846  0.54158811  0.04621201    -0.18400
C764        C  0.98654451  0.53312397  0.05186430    -0.18400
H765        H  0.01066988  0.50442948  0.88141473     0.14500
H766        H  0.07083153  0.50861965  0.87814211     0.14500
H767        H  0.01613217  0.50925684  0.10581375     0.14500
H768        H  0.07655813  0.51290391  0.10230692     0.14500
H769        H  0.92431842  0.53986267  0.96710413     0.12800
H770        H  0.92559390  0.54221748  0.02874753     0.12800
H771        H  0.15212638  0.56035989  0.95510640     0.12800
H772        H  0.15334196  0.56362599  0.01698207     0.12800
H773        H  0.03950774  0.54488289  0.96657991     0.26100
H774        H  0.04005882  0.55068401  0.01931841     0.26100
N775        N  0.54031382  0.58245714  0.99912824    -0.36700
N776        N  0.59062615  0.53661762  0.99700715    -0.57300
N777        N  0.54589307  0.48706217  0.99411257    -0.36700
N778        N  0.49534344  0.53344645  0.00064818    -0.57300
C779        C  0.56439342  0.60074749  0.00453566     0.26900
C780        C  0.51444164  0.59910937  0.00697967     0.26900
C781        C  0.57213921  0.46998493  0.99782804     0.26900
C782        C  0.52182563  0.46822189  0.99837412     0.26900
C783        C  0.60705776  0.56236646  0.99267171     0.35500
C784        C  0.61007466  0.51219438  0.99121870     0.35500
C785        C  0.47588721  0.55829846  0.99831069     0.35500
C786        C  0.47878181  0.50798603  0.99513378     0.35500
C787        C  0.55365868  0.62944559  0.01569069    -0.22000
C788        C  0.52221289  0.62842799  0.01721342    -0.22000
C789        C  0.56464949  0.43964233  0.00392286    -0.22000
C790        C  0.53301135  0.43849669  0.00411879    -0.22000
C791        C  0.63718058  0.55431695  0.98431780    -0.23000
C792        C  0.63915284  0.52253891  0.98353691    -0.23000
C793        C  0.44668205  0.54859261  0.99173645    -0.23000
C794        C  0.44847286  0.51676858  0.98980253    -0.23000
C795        C  0.59575373  0.59297829  0.99826556    -0.18400
C796        C  0.48389700  0.58954897  0.00318417    -0.18400
C797        C  0.49008599  0.47685156  0.99649642    -0.18400
C798        C  0.60267116  0.48071919  0.99491698    -0.18400
H799        H  0.56707085  0.64922988  0.02188460     0.14500
H800        H  0.50680935  0.64732928  0.02473715     0.14500
H801        H  0.58034831  0.42026821  0.00773438     0.14500
H802        H  0.51975727  0.41807190  0.00820604     0.14500
H803        H  0.65589897  0.56973021  0.97986429     0.12800
H804        H  0.65974824  0.50864412  0.97824596     0.12800
H805        H  0.42618309  0.56293148  0.98889902     0.12800
H806        H  0.42954406  0.50179964  0.98517811     0.12800
H807        H  0.54136524  0.56066042  0.98876307     0.26100
H808        H  0.54446875  0.51006007  0.98792494     0.26100
N809        N  0.03143102  0.57469669  0.49214396    -0.36700
N810        N  0.02369126  0.53191353  0.43961336    -0.57300
N811        N  0.02673944  0.48021501  0.48266571    -0.36700
N812        N  0.03008785  0.52361768  0.53531494    -0.57300
C813        C  0.02345251  0.59435353  0.46925373     0.26900
C814        C  0.02674658  0.59002847  0.51969893     0.26900
C815        C  0.01778616  0.46585627  0.45620932     0.26900
C816        C  0.02010133  0.46154388  0.50690503     0.26900
C817        C  0.03003138  0.55800294  0.42393889     0.35500
C818        C  0.02775878  0.50816972  0.41885283     0.35500
C819        C  0.03761059  0.54651369  0.55536454     0.35500
C820        C  0.03471784  0.49671644  0.55042278     0.35500
C821        C  0.01346753  0.62252342  0.48236659    -0.22000
C822        C  0.01564643  0.61982219  0.51426446    -0.22000
C823        C  0.00546027  0.43760008  0.46365921    -0.22000
C824        C  0.00667471  0.43498776  0.49569771    -0.22000
C825        C  0.03767975  0.55087183  0.39299570    -0.23000
C826        C  0.03633720  0.51927344  0.38979266    -0.23000
C827        C  0.04672752  0.53416809  0.58345537    -0.23000
C828        C  0.04487790  0.50261850  0.58034695    -0.23000
C829        C  0.02758980  0.58829281  0.43688423    -0.18400
C830        C  0.03435346  0.57848192  0.54934701    -0.18400
C831        C  0.02763082  0.46708210  0.53851706    -0.18400
C832        C  0.02230603  0.47679061  0.42543410    -0.18400
H833        H  0.00616386  0.64310883  0.47014939     0.14500
H834        H  0.01023376  0.63789489  0.53146518     0.14500
H835        H  0.99665527  0.42058870  0.44763507     0.14500
H836        H  0.99912294  0.41548279  0.50915392     0.14500
H837        H  0.04358285  0.56676337  0.37463884     0.12800
H838        H  0.04088129  0.50602153  0.36844214     0.12800
H839        H  0.05362437  0.54660343  0.60415013     0.12800
H840        H  0.05009769  0.48594692  0.59822093     0.12800
H841        H  0.04176224  0.55288475  0.48896211     0.26100
H842        H  0.03862177  0.50066906  0.48383397     0.26100
N843        N  0.52887901  0.02639426  0.55758510    -0.36700
N844        N  0.57963398  0.02572345  0.51182981    -0.57300
N845        N  0.53592650  0.02081488  0.46187350    -0.36700
N846        N  0.48489835  0.02544483  0.50806228    -0.57300
C847        C  0.55225093  0.03543122  0.57544803     0.26900
C848        C  0.50246044  0.03385148  0.57351718     0.26900
C849        C  0.56207010  0.02593542  0.44517001     0.26900
C850        C  0.51195636  0.02669954  0.44308175     0.26900
C851        C  0.59575567  0.02294221  0.53825107     0.35500
C852        C  0.59954684  0.01916987  0.48780421     0.35500
C853        C  0.46558262  0.02057630  0.53264601     0.35500
C854        C  0.46908741  0.01937316  0.48201215     0.35500
C855        C  0.54057455  0.04878616  0.60308720    -0.22000
C856        C  0.50908734  0.04786668  0.60182736    -0.22000
C857        C  0.55463301  0.03475000  0.41520212    -0.22000
C858        C  0.52304302  0.03520357  0.41387196    -0.22000
C859        C  0.62616697  0.01490768  0.53103259    -0.23000
C860        C  0.62857978  0.01251607  0.49902291    -0.23000
C861        C  0.43727173  0.01168279  0.52219824    -0.23000
C862        C  0.43944097  0.01103955  0.49009828    -0.23000
C863        C  0.58375800  0.02948112  0.56863617    -0.18400
C864        C  0.47275763  0.02592026  0.56427060    -0.18400
C865        C  0.48045193  0.02280034  0.45100345    -0.18400
C866        C  0.59245142  0.02168454  0.45585946    -0.18400
H867        H  0.55342301  0.05768367  0.62243072     0.14500
H868        H  0.49292376  0.05588017  0.61999486     0.14500
H869        H  0.57034199  0.04000483  0.39615441     0.14500
H870        H  0.50976667  0.04086613  0.39357617     0.14500
H871        H  0.64471960  0.01149176  0.54712139     0.12800
H872        H  0.64939080  0.00691285  0.48552420     0.12800
H873        H  0.41709392  0.00652464  0.53621177     0.12800
H874        H  0.42125040  0.00512537  0.47448384     0.12800
H875        H  0.53090336  0.01357249  0.53689878     0.26100
H876        H  0.53452037  0.01221363  0.48432080     0.26100
C877        C  0.11852481  0.12115367  0.47320856    -0.05900
C878        C  0.11559749  0.10281600  0.49979130     0.00000
C879        C  0.13530830  0.10745356  0.52513227    -0.08500
C880        C  0.15837611  0.12947569  0.52226127    -0.05900
C881        C  0.16153708  0.14809578  0.49569190     0.00000
C882        C  0.14064446  0.14434619  0.47094651    -0.08400
C883        C  0.14013654  0.16578219  0.44319821     0.61900
H884        H  0.10273707  0.11748790  0.45443189     0.12600
H885        H  0.17408819  0.13246782  0.54113440     0.12700
C886        C  0.13124271  0.09003759  0.55552148     0.62200
F887        F  0.11554351  0.16029458  0.42415691    -0.23000
F888        F  0.16675810  0.16154400  0.42525698    -0.20300
F889        F  0.13749572  0.19619998  0.45368993    -0.20000
F890        F  0.13717080  0.05875653  0.55052900    -0.20000
F891        F  0.10143811  0.09445082  0.56698617    -0.20400
F892        F  0.15088017  0.10019670  0.57822585    -0.23000
C893        C  0.14248113  0.56226512  0.11918401    -0.05900
C894        C  0.16581320  0.53904529  0.11861067     0.00000
C895        C  0.16836063  0.51842533  0.09236956    -0.08500
C896        C  0.14609852  0.52052228  0.06903922    -0.05900
C897        C  0.12218421  0.54299486  0.07039127     0.00000
C898        C  0.12095875  0.56504525  0.09530698    -0.08400
C899        C  0.09686715  0.59122737  0.09733271     0.61900
H900        H  0.14049124  0.57788225  0.13914657     0.12600
H901        H  0.14678245  0.50407524  0.04967202     0.12700
C902        C  0.19452080  0.49459879  0.08830229     0.62200
F903        F  0.10574782  0.61477897  0.11716103    -0.23000
F904        F  0.06934629  0.58033103  0.10874252    -0.20300
F905        F  0.09246927  0.60384448  0.06821795    -0.20000
F906        F  0.19049905  0.47075836  0.10899548    -0.20000
F907        F  0.22231295  0.50827950  0.09350132    -0.20400
F908        F  0.19585656  0.48191339  0.05837258    -0.23000
C909        C  0.52459397  0.13238459  0.14388722    -0.05900
C910        C  0.55030217  0.14942452  0.15234888     0.00000
C911        C  0.57640803  0.14885928  0.13143398    -0.08500
C912        C  0.57654247  0.12907524  0.10482492    -0.05900
C913        C  0.55111125  0.11147353  0.09745631     0.00000
C914        C  0.52406366  0.11450143  0.11623619    -0.08400
C915        C  0.49460402  0.09919874  0.10688594     0.61900
H916        H  0.50476521  0.13255972  0.15942723     0.12600
H917        H  0.59675964  0.12681283  0.08963177     0.12700
C918        C  0.60387731  0.16915211  0.13625156     0.62200
F919        F  0.47012361  0.10779622  0.12670326    -0.23000
F920        F  0.49841129  0.06737166  0.10755153    -0.20300
F921        F  0.48706303  0.10794648  0.07702287    -0.20000
F922        F  0.62061102  0.15862648  0.16118891    -0.20000
F923        F  0.59403600  0.19951268  0.14176407    -0.20400
F924        F  0.62335015  0.16886220  0.11017036    -0.23000
C925        C  0.61942163  0.63724621  0.97151872    -0.05900
C926        C  0.61772494  0.61884815  0.99812270     0.00000
C927        C  0.63374741  0.62734833  0.02501922    -0.08500
C928        C  0.65169817  0.65389209  0.02404930    -0.05900
C929        C  0.65364119  0.67292783  0.99747467     0.00000
C930        C  0.63669694  0.66440873  0.97063061    -0.08400
C931        C  0.63553517  0.68391342  0.94141748     0.61900
H932        H  0.60623139  0.63038137  0.95156960     0.12600
H933        H  0.66412937  0.66002304  0.04464987     0.12700
C934        C  0.63132716  0.60876263  0.05485987     0.62200
F935        F  0.61515836  0.67263455  0.91996583    -0.23000
F936        F  0.66426162  0.68392718  0.92693311    -0.20300
F937        F  0.62589089  0.71385898  0.94926405    -0.20000
F938        F  0.64441295  0.57954230  0.04987089    -0.20000
F939        F  0.60084440  0.60598782  0.06393329    -0.20400
F940        F  0.64621763  0.62269535  0.07932739    -0.23000
C941        C  0.67216184  0.43378373  0.02183364    -0.05900
C942        C  0.68246848  0.41862991  0.99398568     0.00000
C943        C  0.66512748  0.42299381  0.96638887    -0.08500
C944        C  0.63868902  0.44272102  0.96802177    -0.05900
C945        C  0.62894544  0.45780294  0.99587613     0.00000
C946        C  0.64563685  0.45301804  0.02337447    -0.08400
C947        C  0.63532981  0.46797693  0.05436744     0.61900
H948        H  0.68527930  0.43070369  0.04275416     0.12600
H949        H  0.62550461  0.44708136  0.94733438     0.12700
C950        C  0.67369705  0.40699533  0.93535707     0.62200
F951        F  0.65424295  0.45928066  0.07846997    -0.23000
F952        F  0.60585528  0.45914603  0.06198745    -0.20300
F953        F  0.63570043  0.49983871  0.05229444    -0.20000
F954        F  0.67566147  0.37527647  0.93922094    -0.20000
F955        F  0.70148569  0.41749785  0.92408502    -0.20400
F956        F  0.65206256  0.41288897  0.91284912    -0.23000
C957        C  0.45805922  0.63103179  0.97381651    -0.05900
C958        C  0.45983969  0.61481695  0.00180515     0.00000
C959        C  0.44332949  0.62623036  0.02860240    -0.08500
C960        C  0.42494442  0.65345832  0.02617914    -0.05900
C961        C  0.42323197  0.67012312  0.99815872     0.00000
C962        C  0.44064754  0.65882525  0.97144747    -0.08400
C963        C  0.44264241  0.67636064  0.94089340     0.61900
H964        H  0.47167550  0.62215959  0.95396821     0.12600
H965        H  0.41170881  0.66193821  0.04641259     0.12700
C966        C  0.44541621  0.60985058  0.05964294     0.62200
F967        F  0.46505306  0.66372069  0.92062995    -0.23000
F968        F  0.44997502  0.70681520  0.94673290    -0.20300
F969        F  0.41502399  0.67533373  0.92578727    -0.20000
F970        F  0.42995384  0.62632858  0.08345496    -0.20000
F971        F  0.47576817  0.60619390  0.06799210    -0.20400
F972        F  0.43262530  0.58104754  0.05708174    -0.23000
C973        C  0.75055414  0.78562315  0.91876101    -0.05900
C974        C  0.73284035  0.78379948  0.89200686     0.00000
C975        C  0.70271135  0.77256886  0.89443627    -0.08500
C976        C  0.69220287  0.76092867  0.92321640    -0.05900
C977        C  0.71069588  0.76050170  0.94969905     0.00000
C978        C  0.73999346  0.77468096  0.94788297    -0.08400
C979        C  0.76101370  0.77721874  0.97570750     0.61900
H980        H  0.77353688  0.79433904  0.91615799     0.12600
H981        H  0.66964975  0.75111680  0.92492378     0.12700
C982        C  0.68234336  0.77161294  0.86622351     0.62200
F983        F  0.78871702  0.79032191  0.96775035    -0.23000
F984        F  0.76753171  0.74812532  0.98733924    -0.20300
F985        F  0.74707501  0.79588266  0.99879490    -0.20000
F986        F  0.69521939  0.75155377  0.84380864    -0.20000
F987        F  0.67941655  0.80094405  0.85392821    -0.20400
F988        F  0.65321388  0.76162575  0.87380708    -0.23000
C989        C  0.62804471  0.00791712  0.64059611    -0.05900
C990        C  0.64472792  0.03477975  0.64620400     0.00000
C991        C  0.64132660  0.06024906  0.62554933    -0.08500
C992        C  0.62087168  0.05767329  0.60069173    -0.05900
C993        C  0.60519175  0.03041799  0.59502554     0.00000
C994        C  0.60942274  0.00478051  0.61460163    -0.08400
C995        C  0.59521959  0.97387320  0.60735132     0.61900
H996        H  0.63009789  0.98884118  0.65651939     0.12600
H997        H  0.61710926  0.07682451  0.58506983     0.12700
C998        C  0.65945392  0.08968387  0.62860644     0.62200
F999        F  0.60434249  0.95121174  0.62798556    -0.23000
F1000       F  0.60423657  0.96398775  0.57756502    -0.20300
F1001       F  0.56357591  0.97685134  0.60911067    -0.20000
F1002       F  0.69060054  0.08243284  0.62883270    -0.20000
F1003       F  0.65060269  0.10550598  0.65582811    -0.20400
F1004       F  0.65458650  0.10943484  0.60391248    -0.23000
C1005       C  0.72912679  0.91871110  0.70296312    -0.05900
C1006       C  0.74119444  0.91670421  0.73306903     0.00000
C1007       C  0.73938959  0.94300427  0.75322079    -0.08500
C1008       C  0.72531185  0.97031254  0.74229697    -0.05900
C1009       C  0.71340996  0.97235028  0.71206812     0.00000
C1010       C  0.71551437  0.94599031  0.69180914    -0.08400
C1011       C  0.70397380  0.94601564  0.65849523     0.61900
H1012       H  0.73012210  0.89823447  0.68804289     0.12600
H1013       H  0.72345680  0.99051521  0.75755387     0.12700
C1014       C  0.75295977  0.94291544  0.78558531     0.62200
F1015       F  0.71278474  0.91923956  0.64205370    -0.23000
F1016       F  0.71570445  0.97066933  0.64226970    -0.20300
F1017       F  0.67224839  0.94791301  0.65912618    -0.20000
F1018       F  0.78338064  0.93281594  0.78364559    -0.20000
F1019       F  0.73660693  0.92368550  0.80486817    -0.20400
F1020       F  0.75192461  0.97214100  0.79934300    -0.23000
C1021       C  0.78277057  0.31736823  0.90624199    -0.05900
C1022       C  0.78569578  0.33894891  0.88236768     0.00000
C1023       C  0.78167191  0.37087310  0.88918081    -0.08500
C1024       C  0.77384407  0.38023695  0.92001270    -0.05900
C1025       C  0.76872358  0.35854397  0.94362066     0.00000
C1026       C  0.77391105  0.32649698  0.93688713    -0.08400
C1027       C  0.76797308  0.30180105  0.96104966     0.61900
H1028       H  0.78548466  0.29301764  0.90007841     0.12600
H1029       H  0.76956670  0.40456071  0.92546708     0.12700
C1030       C  0.78309159  0.39451101  0.86337468     0.62200
F1031       F  0.77145178  0.27219208  0.94840242    -0.23000
F1032       F  0.73824195  0.30512795  0.97303189    -0.20300
F1033       F  0.78854867  0.30446337  0.98497409    -0.20000
F1034       F  0.76034050  0.38885432  0.84222063    -0.20000
F1035       F  0.81144851  0.39232592  0.84811561    -0.20400
F1036       F  0.77874027  0.42449001  0.87480464    -0.23000
C1037       C  0.75481557  0.12229303  0.72131668    -0.05900
C1038       C  0.73413350  0.14481014  0.73391937     0.00000
C1039       C  0.70349546  0.13711309  0.74140814    -0.08500
C1040       C  0.69367280  0.10760614  0.73301727    -0.05900
C1041       C  0.71390978  0.08560116  0.71884566     0.00000
C1042       C  0.74530841  0.09234589  0.71401469    -0.08400
C1043       C  0.76850545  0.06838390  0.70079063     0.61900
H1044       H  0.77836280  0.12863153  0.71664159     0.12600
H1045       H  0.66991194  0.10160757  0.73696549     0.12700
C1046       C  0.68146264  0.15975242  0.75842025     0.62200
F1047       F  0.79707157  0.08084823  0.69545448    -0.23000
F1048       F  0.75859402  0.05650008  0.67271585    -0.20300
F1049       F  0.77199902  0.04463971  0.72183349    -0.20000
F1050       F  0.67443459  0.18413576  0.73920881    -0.20000
F1051       F  0.69483103  0.17083618  0.78520554    -0.20400
F1052       F  0.65426464  0.14604355  0.76713681    -0.23000
C1053       C  0.04806048  0.39805905  0.58955368    -0.05900
C1054       C  0.02387990  0.39963488  0.61203897     0.00000
C1055       C  0.99969046  0.42222095  0.60846497    -0.08500
C1056       C  0.00103709  0.44227194  0.58287212    -0.05900
C1057       C  0.02579808  0.44136610  0.56139801     0.00000
C1058       C  0.04967843  0.41881841  0.56449826    -0.08400
C1059       C  0.07749159  0.41775313  0.54239823     0.61900
H1060       H  0.06629328  0.38081285  0.59222218     0.12600
H1061       H  0.98313363  0.45982003  0.57986864     0.12700
C1062       C  0.97283852  0.42626509  0.63162271     0.62200
F1063       F  0.09817655  0.39415302  0.54959519    -0.23000
F1064       F  0.09244783  0.44549675  0.54427666    -0.20300
F1065       F  0.06845416  0.41288772  0.51204874    -0.20000
F1066       F  0.98335777  0.42833377  0.66180283    -0.20000
F1067       F  0.95373901  0.40144833  0.62866519    -0.20400
F1068       F  0.95551212  0.45298099  0.62638584    -0.23000
C1069       C  0.94708902  0.35906254  0.69241180    -0.05900
C1070       C  0.97326777  0.33952498  0.69500504     0.00000
C1071       C  0.97000074  0.31030681  0.70950894    -0.08500
C1072       C  0.94088641  0.30257119  0.72167639    -0.05900
C1073       C  0.91493025  0.32186731  0.71792272     0.00000
C1074       C  0.91776440  0.35027795  0.70227800    -0.08400
C1075       C  0.89073037  0.37081155  0.69262177     0.61900
H1076       H  0.94925935  0.38128805  0.68149995     0.12600
H1077       H  0.93778007  0.28057734  0.73298691     0.12700
C1078       C  0.99613130  0.28634644  0.71047671     0.62200
F1079       F  0.89590120  0.40133224  0.70053229    -0.23000
F1080       F  0.86304616  0.36296988  0.70628345    -0.20300
F1081       F  0.88810759  0.36856378  0.66053586    -0.20000
F1082       F  0.01810527  0.29605335  0.73085094    -0.20000
F1083       F  0.00918423  0.28191895  0.68091010    -0.20400
F1084       F  0.98610260  0.25795005  0.72051678    -0.23000
C1085       C  0.06447763  0.64106796  0.60324760    -0.05900
C1086       C  0.04014660  0.64508609  0.62527623     0.00000
C1087       C  0.01471050  0.62508377  0.62348908    -0.08500
C1088       C  0.01360518  0.60396072  0.59816149    -0.05900
C1089       C  0.03751226  0.60099997  0.57575070     0.00000
C1090       C  0.06397368  0.61885355  0.57896966    -0.08400
C1091       C  0.09181308  0.61400781  0.55722836     0.61900
H1092       H  0.08393734  0.65583428  0.60479967     0.12600
H1093       H  0.99390809  0.58946502  0.59554957     0.12700
C1094       C  0.98904468  0.62501103  0.64820513     0.62200
F1095       F  0.11613360  0.63181934  0.56617439    -0.23000
F1096       F  0.08437962  0.62196159  0.52718570    -0.20300
F1097       F  0.10152679  0.58326081  0.55744914    -0.20000
F1098       F  0.96955885  0.65047594  0.64465221    -0.20000
F1099       F  0.00116125  0.62551131  0.67778831    -0.20400
F1100       F  0.97177917  0.59868314  0.64586446    -0.23000
C1101       C  0.97141302  0.69937709  0.71434956    -0.05900
C1102       C  0.99033430  0.72025139  0.69893627     0.00000
C1103       C  0.98041558  0.75155317  0.69618665    -0.08500
C1104       C  0.95162438  0.76098296  0.70941777    -0.05900
C1105       C  0.93222157  0.73981913  0.72393837     0.00000
C1106       C  0.94229846  0.70845529  0.72669872    -0.08400
C1107       C  0.92271409  0.68463630  0.74289027     0.61900
H1108       H  0.97945991  0.67551862  0.71597281     0.12600
H1109       H  0.94336859  0.78471054  0.70721011     0.12700
C1110       C  0.99938257  0.77436432  0.67795792     0.62200
F1111       F  0.93835714  0.65651203  0.74579531    -0.23000
F1112       F  0.89673791  0.67931494  0.72596155    -0.20300
F1113       F  0.91423635  0.69531035  0.77252620    -0.20000
F1114       F  0.00539338  0.76294975  0.64799060    -0.20000
F1115       F  0.02682765  0.77885783  0.69268815    -0.20400
F1116       F  0.98426991  0.80283804  0.67565675    -0.23000
C1117       C  0.33100049  0.73732804  0.89508592    -0.05900
C1118       C  0.33970259  0.76620806  0.88331097     0.00000
C1119       C  0.35583951  0.78659032  0.90290390    -0.08500
C1120       C  0.36553780  0.77568088  0.93205546    -0.05900
C1121       C  0.35913221  0.74569377  0.94205867     0.00000
C1122       C  0.34036923  0.72662748  0.92405681    -0.08400
C1123       C  0.32964765  0.69538561  0.93538968     0.61900
H1124       H  0.31712275  0.72250205  0.88096952     0.12600
H1125       H  0.37893592  0.79021403  0.94704028     0.12700
C1126       C  0.36298227  0.81934497  0.89346564     0.62200
F1127       F  0.30790396  0.68303722  0.91605001    -0.23000
F1128       F  0.31651969  0.69865896  0.96503312    -0.20300
F1129       F  0.35413593  0.67444652  0.93611191    -0.20000
F1130       F  0.33583006  0.83614338  0.88985061    -0.20000
F1131       F  0.37987994  0.81889322  0.86574003    -0.20400
F1132       F  0.37979937  0.83444919  0.91578628    -0.23000
C1133       C  0.15550329  0.73067893  0.68198162    -0.05900
C1134       C  0.15989423  0.73355122  0.71429556     0.00000
C1135       C  0.13571866  0.72556954  0.73526902    -0.08500
C1136       C  0.10782633  0.71573116  0.72292274    -0.05900
C1137       C  0.10354669  0.71287665  0.69059755     0.00000
C1138       C  0.12789852  0.72033820  0.66967422    -0.08400
C1139       C  0.12505820  0.71767577  0.63448534     0.61900
H1140       H  0.17414604  0.73667319  0.66619742     0.12600
H1141       H  0.08899043  0.70998255  0.73857354     0.12700
C1142       C  0.13918655  0.72686664  0.77043221     0.62200
F1143       F  0.14951035  0.73075457  0.61872879    -0.23000
F1144       F  0.09836569  0.73263443  0.62522663    -0.20300
F1145       F  0.12468717  0.68680299  0.62582844    -0.20000
F1146       F  0.13950457  0.75741165  0.78041240    -0.20000
F1147       F  0.16617116  0.71168440  0.77851828    -0.20400
F1148       F  0.11518760  0.71281886  0.78597807    -0.23000
C1149       C  0.42608645  0.00369336  0.63655074    -0.05900
C1150       C  0.40531248  0.02911209  0.64002278     0.00000
C1151       C  0.40424178  0.05150781  0.61605589    -0.08500
C1152       C  0.42596853  0.04908856  0.59109199    -0.05900
C1153       C  0.44803912  0.02481554  0.58901772     0.00000
C1154       C  0.44746751  0.00105477  0.61144637    -0.08400
C1155       C  0.46940994  0.97306053  0.60901966     0.61900
H1156       H  0.42626810  0.98624798  0.65436963     0.12600
H1157       H  0.42653597  0.06674844  0.57340636     0.12700
C1158       C  0.38034572  0.07775882  0.61638770     0.62200
F1159       F  0.46257133  0.95112428  0.63119756    -0.23000
F1160       F  0.49917605  0.98196779  0.61354064    -0.20300
F1161       F  0.46760562  0.95921820  0.57980988    -0.20000
F1162       F  0.38791442  0.10003188  0.63814369    -0.20000
F1163       F  0.35158828  0.06669761  0.62373805    -0.20400
F1164       F  0.37866944  0.09166665  0.58751757    -0.23000
C1165       C  0.31650172  0.97205061  0.72377210    -0.05900
C1166       C  0.34821239  0.97666521  0.72309782     0.00000
C1167       C  0.36850746  0.95388882  0.73504589    -0.08500
C1168       C  0.35637592  0.92593482  0.74536580    -0.05900
C1169       C  0.32485797  0.92035896  0.74385762     0.00000
C1170       C  0.30431536  0.94433035  0.73452948    -0.08400
C1171       C  0.26962918  0.94164236  0.73524745     0.61900
H1172       H  0.30114366  0.99010292  0.71533253     0.12600
H1173       H  0.37165846  0.90752296  0.75302574     0.12700
C1174       C  0.40273141  0.95919211  0.73682054     0.62200
F1175       F  0.25612917  0.96828189  0.74844468    -0.23000
F1176       F  0.25991252  0.91695336  0.75275656    -0.20300
F1177       F  0.25952762  0.93824827  0.70505078    -0.20000
F1178       F  0.40746581  0.98590529  0.75403491    -0.20000
F1179       F  0.41530085  0.96223221  0.70714437    -0.20400
F1180       F  0.41811712  0.93487673  0.75092516    -0.23000
C1181       C  0.21668033  0.22957113  0.61387427    -0.05900
C1182       C  0.23305323  0.25702230  0.61314018     0.00000
C1183       C  0.24048593  0.27010293  0.58395647    -0.08500
C1184       C  0.23214222  0.25432860  0.55638202    -0.05900
C1185       C  0.21734577  0.22560880  0.55701772     0.00000
C1186       C  0.20947391  0.21300876  0.58668982    -0.08400
C1187       C  0.19536421  0.18142872  0.59056783     0.61900
H1188       H  0.21087148  0.22026111  0.63655064     0.12600
H1189       H  0.23773483  0.26422396  0.53394904     0.12700
C1190       C  0.25784127  0.29996940  0.58189674     0.62200
F1191       F  0.19382836  0.17256338  0.62152248    -0.23000
F1192       F  0.21317802  0.15918828  0.57445426    -0.20300
F1193       F  0.16570504  0.18210264  0.57972120    -0.20000
F1194       F  0.26564994  0.30697490  0.55131670    -0.20000
F1195       F  0.28470120  0.29750230  0.59840406    -0.20400
F1196       F  0.23965185  0.32408704  0.59429662    -0.23000
C1197       C  0.12652829  0.33286876  0.72538767    -0.05900
C1198       C  0.14696630  0.31995001  0.70264633     0.00000
C1199       C  0.13728474  0.31684979  0.67136206    -0.08500
C1200       C  0.10750617  0.32760309  0.66395553    -0.05900
C1201       C  0.08720095  0.34105071  0.68663884     0.00000
C1202       C  0.09692145  0.34398982  0.71795756    -0.08400
C1203       C  0.07719219  0.36048541  0.74314912     0.61900
H1204       H  0.13445451  0.33509444  0.74908460     0.12600
H1205       H  0.09972705  0.32550645  0.64018931     0.12700
C1206       C  0.15775344  0.30140109  0.64609833     0.62200
F1207       F  0.09250332  0.36317118  0.77101561    -0.23000
F1208       F  0.05087021  0.34433691  0.74908694    -0.20300
F1209       F  0.06928235  0.38997436  0.73348668    -0.20000
F1210       F  0.16826348  0.27281947  0.65614132    -0.20000
F1211       F  0.18248261  0.31971695  0.63941338    -0.20400
F1212       F  0.14218287  0.29677843  0.61865416    -0.23000
C1213       C  0.32405288  0.12669424  0.76035814    -0.05900
C1214       C  0.33873204  0.15189020  0.74712038     0.00000
C1215       C  0.36377483  0.14644378  0.72585174    -0.08500
C1216       C  0.37148485  0.11598242  0.71646627    -0.05900
C1217       C  0.35516120  0.09049255  0.72729781     0.00000
C1218       C  0.33178714  0.09585127  0.75106835    -0.08400
C1219       C  0.31404850  0.06990621  0.76611996     0.61900
H1220       H  0.30497463  0.13158200  0.77654917     0.12600
H1221       H  0.39024252  0.11235640  0.69960335     0.12700
C1222       C  0.38245741  0.17186764  0.71120692     0.62200
F1223       F  0.29261634  0.08098562  0.78827544    -0.23000
F1224       F  0.33413873  0.05005643  0.78111721    -0.20300
F1225       F  0.29832386  0.05382958  0.74367789    -0.20000
F1226       F  0.41340130  0.16554554  0.71540466    -0.20000
F1227       F  0.37565445  0.20084438  0.72402705    -0.20400
F1228       F  0.37710377  0.17258330  0.67950418    -0.23000
C1229       C  0.45861334  0.43902661  0.96769028    -0.05900
C1230       C  0.46704560  0.45172384  0.99640799     0.00000
C1231       C  0.45281337  0.44141867  0.02419680    -0.08500
C1232       C  0.43087373  0.41818771  0.02234084    -0.05900
C1233       C  0.42116634  0.40588205  0.99357459     0.00000
C1234       C  0.43552540  0.41675481  0.96541887    -0.08400
C1235       C  0.42670146  0.40600136  0.93287474     0.61900
H1236       H  0.46986418  0.44758827  0.94684129     0.12600
H1237       H  0.42024675  0.41039190  0.04379250     0.12700
C1238       C  0.45959509  0.45611661  0.05563578     0.62200
F1239       F  0.44364246  0.42009295  0.90956219    -0.23000
F1240       F  0.39608256  0.41339540  0.92803368    -0.20300
F1241       F  0.43196080  0.37439315  0.92954370    -0.18800
F1242       F  0.44922122  0.48665720  0.05609717    -0.20000
F1243       F  0.49082693  0.45501209  0.06069687    -0.20400
F1244       F  0.44517964  0.44119086  0.08008255    -0.23000
C1245       C  0.36841837  0.32256434  0.91970167    -0.05900
C1246       C  0.34761736  0.33808219  0.94046625     0.00000
C1247       C  0.31641152  0.34192248  0.93225989    -0.08500
C1248       C  0.30717263  0.32997997  0.90329915    -0.05900
C1249       C  0.32790780  0.31428415  0.88253780     0.00000
C1250       C  0.35914630  0.31053756  0.89074386    -0.08400
C1251       C  0.38282882  0.29499967  0.86865886     0.61900
H1252       H  0.39218495  0.32008431  0.92638339     0.12600
H1253       H  0.28352821  0.33310220  0.89638048     0.12700
C1254       C  0.29312266  0.35937954  0.95340983     0.62200
F1255       F  0.41219526  0.29590254  0.88029947    -0.23000
F1256       F  0.38301844  0.30975699  0.84020968    -0.20300
F1257       F  0.37574595  0.26433722  0.86423939    -0.20000
F1258       F  0.30431422  0.38783323  0.96201681    -0.20000
F1259       F  0.28734329  0.34234847  0.97988139    -0.20400
F1260       F  0.26549505  0.36464124  0.93874239    -0.23000
C1261       C  0.00526181  0.62109208  0.39544855    -0.05900
C1262       C  0.02966979  0.61506211  0.41546413     0.00000
C1263       C  0.05605869  0.63339517  0.41385230    -0.08500
C1264       C  0.05642098  0.65826161  0.39313349    -0.05900
C1265       C  0.03176370  0.66491972  0.37344555     0.00000
C1266       C  0.00598417  0.64543114  0.37392722    -0.08400
C1267       C  0.97991063  0.64916831  0.35119010     0.61900
H1268       H  0.98564234  0.60626706  0.39673062     0.12600
H1269       H  0.07611933  0.67299645  0.39243121     0.12700
C1270       C  0.08389063  0.62664333  0.43367769     0.62200
F1271       F  0.96073243  0.62416760  0.35182429    -0.23000
F1272       F  0.99164145  0.65143762  0.32100269    -0.20300
F1273       F  0.96232302  0.67539773  0.35887250    -0.20000
F1274       F  0.09265146  0.59568203  0.43095476    -0.20000
F1275       F  0.07687479  0.63381957  0.46459137    -0.20400
F1276       F  0.10879759  0.64389610  0.42461799    -0.23000
C1277       C  0.75026068  0.72930987  0.10339732    -0.05900
C1278       C  0.74622368  0.75912782  0.11652538     0.00000
C1279       C  0.72769794  0.78149024  0.10120575    -0.08500
C1280       C  0.71207625  0.77231343  0.07430688    -0.05900
C1281       C  0.71540244  0.74215372  0.06186902     0.00000
C1282       C  0.73587178  0.72066027  0.07572108    -0.08400
C1283       C  0.74342220  0.68915942  0.06077991     0.61900
H1284       H  0.76501570  0.71277416  0.11503688     0.12600
H1285       H  0.69754426  0.78882026  0.06231734     0.12700
C1286       C  0.72487990  0.81493042  0.11260815     0.62200
F1287       F  0.76786591  0.67438452  0.07491882    -0.23000
F1288       F  0.75137400  0.69242002  0.02952750    -0.20300
F1289       F  0.71827862  0.67053474  0.06342645    -0.20000
F1290       F  0.75296809  0.82868587  0.10875906    -0.20000
F1291       F  0.71602443  0.81640195  0.14382649    -0.20400
F1292       F  0.70343359  0.83184624  0.09603888    -0.23000
C1293       C  0.93604028  0.77674866  0.32375498    -0.05900
C1294       C  0.93222045  0.77883669  0.29137347     0.00000
C1295       C  0.95738127  0.77112517  0.27080082    -0.08500
C1296       C  0.98415960  0.75783312  0.28318471    -0.05900
C1297       C  0.98676943  0.75266363  0.31531879     0.00000
C1298       C  0.96318610  0.76405233  0.33622325    -0.08400
C1299       C  0.96686014  0.76359104  0.37141881     0.61900
H1300       H  0.91677487  0.78321276  0.33921962     0.12600
H1301       H  0.00284298  0.75039652  0.26734655     0.12700
C1302       C  0.95727812  0.77633265  0.23579422     0.62200
F1303       F  0.94305328  0.77966772  0.38697979    -0.23000
F1304       F  0.99407508  0.77728876  0.37903361    -0.20300
F1305       F  0.96715319  0.73361482  0.38207225    -0.20000
F1306       F  0.93088080  0.79148521  0.22608599    -0.20000
F1307       F  0.96034350  0.74813404  0.22014928    -0.20400
F1308       F  0.98193020  0.79426009  0.22752483    -0.23000
C1309       C  0.65522780  0.00230296  0.39431255    -0.05900
C1310       C  0.67110810  0.03033107  0.39310799     0.00000
C1311       C  0.66004295  0.05573160  0.41231881    -0.08500
C1312       C  0.63377275  0.05193548  0.43156362    -0.05900
C1313       C  0.61865412  0.02384651  0.43297065     0.00000
C1314       C  0.62944336  0.99848406  0.41422485    -0.08400
C1315       C  0.61429260  0.96732444  0.41601686     0.61900
H1316       H  0.66336795  0.98300411  0.37966695     0.12600
H1317       H  0.62500835  0.07079287  0.44649217     0.12700
C1318       C  0.67642217  0.08618387  0.41436079     0.62200
F1319       F  0.58390321  0.97028886  0.40767258    -0.23000
F1320       F  0.61561588  0.95647784  0.44620180    -0.20300
F1321       F  0.62865904  0.94546757  0.39623479    -0.20000
F1322       F  0.67586341  0.10089043  0.38592009    -0.20000
F1323       F  0.70634439  0.08049652  0.42308712    -0.20400
F1324       F  0.66279601  0.10632843  0.43638647    -0.23000
C1325       C  0.76404187  0.96961644  0.30422374    -0.05900
C1326       C  0.75456773  0.97287791  0.33577827     0.00000
C1327       C  0.75805644  0.94720411  0.35595647    -0.08500
C1328       C  0.76740568  0.91833912  0.34282911    -0.05900
C1329       C  0.77466851  0.91492922  0.31095312     0.00000
C1330       C  0.77445945  0.94098598  0.29151363    -0.08400
C1331       C  0.78482622  0.93832645  0.25746592     0.61900
H1332       H  0.76211397  0.98945051  0.28916028     0.12600
H1333       H  0.76849348  0.89795791  0.35725951     0.12700
C1334       C  0.75345627  0.95017315  0.39119164     0.62200
F1335       F  0.78450279  0.96680948  0.24307681    -0.23000
F1336       F  0.76561006  0.91921806  0.24143855    -0.20300
F1337       F  0.81448051  0.92601356  0.25540460    -0.20000
F1338       F  0.72266581  0.95448631  0.39904706    -0.20000
F1339       F  0.76968316  0.97495607  0.40222861    -0.20400
F1340       F  0.76401356  0.92388538  0.40618401    -0.23000
C1341       C  0.60091302  0.23902750  0.23768490    -0.05900
C1342       C  0.59829515  0.20680227  0.23857999     0.00000
C1343       C  0.62238788  0.18847766  0.25104690    -0.08500
C1344       C  0.64992238  0.20279514  0.25890950    -0.05900
C1345       C  0.65348097  0.23474686  0.25529380     0.00000
C1346       C  0.62787954  0.25345738  0.24673647    -0.08400
C1347       C  0.62874541  0.28847982  0.24615986     0.61900
H1348       H  0.58196337  0.25295158  0.22895449     0.12600
H1349       H  0.66942057  0.18887088  0.26634629     0.12700
C1350       C  0.61878361  0.15416367  0.25636441     0.62200
F1351       F  0.59986899  0.30146252  0.25295225    -0.23000
F1352       F  0.63809803  0.29771981  0.21677443    -0.20300
F1353       F  0.64855467  0.29967380  0.26818070    -0.20000
F1354       F  0.61597497  0.13874857  0.22811942    -0.20000
F1355       F  0.59275872  0.14976991  0.27476047    -0.20400
F1356       F  0.64374328  0.14127710  0.27144560    -0.23000
C1357       C  0.73818223  0.33212964  0.10800884    -0.05900
C1358       C  0.76912531  0.33165844  0.11731885     0.00000
C1359       C  0.79167851  0.34342095  0.09616306    -0.08500
C1360       C  0.78226438  0.35442610  0.06686499    -0.05900
C1361       C  0.75140162  0.35504958  0.05820518     0.00000
C1362       C  0.72885717  0.34354175  0.07906897    -0.08400
C1363       C  0.69504737  0.34239937  0.07080856     0.61900
H1364       H  0.72071842  0.32373800  0.12386550     0.12600
H1365       H  0.79901809  0.36331063  0.05045254     0.12700
C1366       C  0.82550286  0.34467647  0.10381927     0.62200
F1367       F  0.67818118  0.32573968  0.09224464    -0.23000
F1368       F  0.69215642  0.32834055  0.04181132    -0.20300
F1369       F  0.68225377  0.37203496  0.07043590    -0.20000
F1370       F  0.83698882  0.31512495  0.10904539    -0.20000
F1371       F  0.82916381  0.36324677  0.12997294    -0.20400
F1372       F  0.84286425  0.35690386  0.07970006    -0.23000
C1373       C  0.75954830  0.13960486  0.32913506    -0.05900
C1374       C  0.75958945  0.14227646  0.29642537     0.00000
C1375       C  0.75277979  0.11601249  0.27786102    -0.08500
C1376       C  0.74556340  0.08817732  0.29294362    -0.05900
C1377       C  0.74535030  0.08585375  0.32568191     0.00000
C1378       C  0.75400782  0.11154291  0.34401292    -0.08400
C1379       C  0.75873388  0.11059224  0.37903010     0.61900
H1380       H  0.76462190  0.15965853  0.34342058     0.12600
H1381       H  0.73922461  0.06814367  0.27929448     0.12700
C1382       C  0.75135806  0.11783719  0.24255909     0.62200
F1383       F  0.78687572  0.12282054  0.38578542    -0.23000
F1384       F  0.75875019  0.08095330  0.39070000    -0.20300
F1385       F  0.73589000  0.12838543  0.39415977    -0.20000
F1386       F  0.78015246  0.12365001  0.23008339    -0.20000
F1387       F  0.73086795  0.14130916  0.23458225    -0.20400
F1388       F  0.74174176  0.09050410  0.22924358    -0.23000
C1389       C  0.25310777  0.59435107  0.21082514    -0.05900
C1390       C  0.22253078  0.59321791  0.20110851     0.00000
C1391       C  0.20257080  0.61943546  0.20669003    -0.08500
C1392       C  0.21443666  0.64615012  0.22065972    -0.05900
C1393       C  0.24536154  0.64763179  0.22872199     0.00000
C1394       C  0.26492785  0.62110167  0.22454796    -0.08400
C1395       C  0.29851862  0.62001842  0.23326742     0.61900
H1396       H  0.26832392  0.57428912  0.20689087     0.12600
H1397       H  0.20005171  0.66692894  0.22355467     0.12700
C1398       C  0.16926430  0.62005380  0.19702292     0.62200
F1399       F  0.30456099  0.59375148  0.25045337    -0.23000
F1400       F  0.30661635  0.64533714  0.25105653    -0.20300
F1401       F  0.31665182  0.61871323  0.20628541    -0.20000
F1402       F  0.15496746  0.59356983  0.20677719    -0.20000
F1403       F  0.16808429  0.62210278  0.16488575    -0.20400
F1404       F  0.15294260  0.64526423  0.20995845    -0.23000
C1405       C  0.37368819  0.76722572  0.11080776    -0.05900
C1406       C  0.34361424  0.77946433  0.11278251     0.00000
C1407       C  0.32642779  0.78280938  0.08552436    -0.08500
C1408       C  0.33940446  0.77147759  0.05704148    -0.05900
C1409       C  0.36911323  0.75745418  0.05523336     0.00000
C1410       C  0.38742810  0.75759373  0.08221992    -0.08400
C1411       C  0.42138812  0.74852298  0.08128864     0.61900
H1412       H  0.38600383  0.76370259  0.13219222     0.12600
H1413       H  0.32573447  0.77228055  0.03626798     0.12700
C1414       C  0.29431882  0.79747569  0.08695846     0.62200
F1415       F  0.43561652  0.75793510  0.10829438    -0.23000
F1416       F  0.43585804  0.76260992  0.05636828    -0.20300
F1417       F  0.42534114  0.71677368  0.07848162    -0.20000
F1418       F  0.29558128  0.82724225  0.09911279    -0.20000
F1419       F  0.27526106  0.78038633  0.10590956    -0.20400
F1420       F  0.28154933  0.79907835  0.05769680    -0.23000
C1421       C  0.14773597  0.71954752  0.28555101    -0.05900
C1422       C  0.15528315  0.75081016  0.28762283     0.00000
C1423       C  0.13444761  0.77258709  0.30213752    -0.08500
C1424       C  0.10577981  0.76236248  0.31269196    -0.05900
C1425       C  0.09807756  0.73110660  0.31047049     0.00000
C1426       C  0.11963305  0.70902706  0.29733127    -0.08400
C1427       C  0.11346810  0.67459738  0.29580647     0.61900
H1428       H  0.16451318  0.70324918  0.27512238     0.12600
H1429       H  0.08921831  0.77872846  0.32334489     0.12700
C1430       C  0.14268645  0.80614620  0.30741175     0.62200
F1431       F  0.13606303  0.65821643  0.27863465    -0.23000
F1432       F  0.08565471  0.66969287  0.28189651    -0.20300
F1433       F  0.11287344  0.66283152  0.32567269    -0.20000
F1434       F  0.14454793  0.82087613  0.27905778    -0.20000
F1435       F  0.17061523  0.80767796  0.32200407    -0.20400
F1436       F  0.12091709  0.82200379  0.32609125    -0.23000
C1437       C  0.43532670  0.00224569  0.37845141    -0.05900
C1438       C  0.41523161  0.02818683  0.37641126     0.00000
C1439       C  0.41544609  0.05137254  0.40046413    -0.08500
C1440       C  0.43751616  0.04878078  0.42386897    -0.05900
C1441       C  0.45780796  0.02310353  0.42539831     0.00000
C1442       C  0.45588872  0.99875456  0.40306233    -0.08400
C1443       C  0.47421779  0.96836778  0.40421795     0.61900
H1444       H  0.43478562  0.98407516  0.36074702     0.12600
H1445       H  0.43900847  0.06683793  0.44155597     0.12700
C1446       C  0.39189644  0.07806270  0.40276427     0.62200
F1447       F  0.45417036  0.94410704  0.40353766    -0.23000
F1448       F  0.49142564  0.96528828  0.43074019    -0.20300
F1449       F  0.49381168  0.96587470  0.37834824    -0.20000
F1450       F  0.36263010  0.06709409  0.39912125    -0.20000
F1451       F  0.39806640  0.09962128  0.38011579    -0.20400
F1452       F  0.39228364  0.09307267  0.43156374    -0.23000
C1453       C  0.37802931  0.95133568  0.29007968    -0.05900
C1454       C  0.35565777  0.97499587  0.29570893     0.00000
C1455       C  0.32454207  0.96968409  0.28834135    -0.08500
C1456       C  0.31686053  0.94015083  0.27725610    -0.05900
C1457       C  0.33914189  0.91645787  0.27245400     0.00000
C1458       C  0.37028369  0.92206668  0.27832617    -0.08400
C1459       C  0.39488114  0.89677677  0.27331843     0.61900
H1460       H  0.40168449  0.95584912  0.29544522     0.12600
H1461       H  0.29315085  0.93500700  0.27275059     0.12700
C1462       C  0.29927202  0.99447010  0.29288384     0.62200
F1463       F  0.42383737  0.90705705  0.28007812    -0.23000
F1464       F  0.39534747  0.88679730  0.24246893    -0.20300
F1465       F  0.38865184  0.87207588  0.29242436    -0.20000
F1466       F  0.30395592  0.01811584  0.27204985    -0.20000
F1467       F  0.29920351  0.00618021  0.32313665    -0.20400
F1468       F  0.27044711  0.98298001  0.28761584    -0.23000
C1469       C  0.26929894  0.20687864  0.39471745    -0.05900
C1470       C  0.26609002  0.23870778  0.38879915     0.00000
C1471       C  0.25230377  0.25848226  0.41226085    -0.08500
C1472       C  0.23871721  0.24530150  0.43881079    -0.05900
C1473       C  0.23995203  0.21330328  0.44382142     0.00000
C1474       C  0.25697252  0.19384317  0.42226670    -0.08400
C1475       C  0.26272781  0.15975036  0.42850889     0.61900
H1476       H  0.28046581  0.19204118  0.37698014     0.12600
H1477       H  0.22697162  0.26038975  0.45600993     0.12700
C1478       C  0.25206408  0.29356389  0.41125377     0.62200
F1479       F  0.28434417  0.14661434  0.40764373    -0.23000
F1480       F  0.23573711  0.14400278  0.42574892    -0.20300
F1481       F  0.27369198  0.15610275  0.45833914    -0.20000
F1482       F  0.22214055  0.30474006  0.40893918    -0.20000
F1483       F  0.26956048  0.30467502  0.38677744    -0.20400
F1484       F  0.26403690  0.30496706  0.43864598    -0.23000
C1485       C  0.48355864  0.23054609  0.25289567    -0.05900
C1486       C  0.48541264  0.20271483  0.23515023     0.00000
C1487       C  0.45764386  0.18705969  0.22921182    -0.08500
C1488       C  0.42948015  0.20065207  0.23995503    -0.05900
C1489       C  0.42783895  0.22955589  0.25512125     0.00000
C1490       C  0.45514671  0.24464482  0.26220116    -0.08400
C1491       C  0.45401095  0.27639058  0.27776910     0.61900
H1492       H  0.50449279  0.24251548  0.25758206     0.12600
H1493       H  0.40806215  0.18994227  0.23430945     0.12700
C1494       C  0.45670377  0.15753353  0.20964414     0.62200
F1495       F  0.48298577  0.28594737  0.28548385    -0.23000
F1496       F  0.43613667  0.27581453  0.30489310    -0.20300
F1497       F  0.44133320  0.29771990  0.25766080    -0.20000
F1498       F  0.47847339  0.13606983  0.21940499    -0.20000
F1499       F  0.46200482  0.16462189  0.17865360    -0.20400
F1500       F  0.42833721  0.14390857  0.21177220    -0.23000
C1501       C  0.22349781  0.42654150  0.21135537    -0.05900
C1502       C  0.25512636  0.42430062  0.21714664     0.00000
C1503       C  0.27336445  0.45057058  0.21270260    -0.08500
C1504       C  0.25934420  0.47772853  0.20102545    -0.05900
C1505       C  0.22781687  0.47964102  0.19451601     0.00000
C1506       C  0.20927536  0.45393099  0.20085056    -0.08400
C1507       C  0.17450025  0.45565665  0.19831435     0.61900
H1508       H  0.20979793  0.40637781  0.21535995     0.12600
H1509       H  0.27302116  0.49784041  0.19671473     0.12700
C1510       C  0.30735668  0.44998450  0.21973998     0.62200
F1511       F  0.16095059  0.42909791  0.20907357    -0.23000
F1512       F  0.16639726  0.45921976  0.16758627    -0.20300
F1513       F  0.16268730  0.48043897  0.21604626    -0.20000
F1514       F  0.32243356  0.42653860  0.20269197    -0.20000
F1515       F  0.31125141  0.44511225  0.25124879    -0.20400
F1516       F  0.32091008  0.47761320  0.21227490    -0.23000
C1517       C  0.33666707  0.30684184  0.09481927    -0.05900
C1518       C  0.32235472  0.32919145  0.11488161     0.00000
C1519       C  0.32016053  0.36038380  0.10517470    -0.08500
C1520       C  0.33203167  0.36803714  0.07534162    -0.05900
C1521       C  0.34624756  0.34558320  0.05534047     0.00000
C1522       C  0.34881732  0.31448566  0.06522156    -0.08400
C1523       C  0.36571952  0.28978972  0.04523489     0.61900
H1524       H  0.33888151  0.28327878  0.10294201     0.12600
H1525       H  0.33067565  0.39174677  0.06751878     0.12700
C1526       C  0.30712335  0.38564516  0.12704125     0.62200
F1527       F  0.36819034  0.26182553  0.06046632    -0.23000
F1528       F  0.39511148  0.29924667  0.03801442    -0.20300
F1529       F  0.35018864  0.28483119  0.01791506    -0.20000
F1530       F  0.32378637  0.38596460  0.15411477    -0.20000
F1531       F  0.27669022  0.38018608  0.13439867    -0.20400
F1532       F  0.30855457  0.41463850  0.11385320    -0.23000
C1533       C  0.32242623  0.09412248  0.30173540    -0.05900
C1534       C  0.35435635  0.08873471  0.30201306     0.00000
C1535       C  0.37437281  0.11203210  0.29195703    -0.08500
C1536       C  0.36158978  0.14075431  0.28336558    -0.05900
C1537       C  0.32972390  0.14646485  0.28388462     0.00000
C1538       C  0.30962431  0.12277092  0.29268935    -0.08400
C1539       C  0.27499614  0.12783351  0.29299273     0.61900
H1540       H  0.30758568  0.07575646  0.30909798     0.12600
H1541       H  0.37645759  0.15920716  0.27627796     0.12700
C1542       C  0.40894175  0.10639347  0.28946298     0.62200
F1543       F  0.25992896  0.10317560  0.30604189    -0.23000
F1544       F  0.26526876  0.13111069  0.26269348    -0.20300
F1545       F  0.26672414  0.15420483  0.31026983    -0.20000
F1546       F  0.41557103  0.07978612  0.27191964    -0.20000
F1547       F  0.42087282  0.10316185  0.31886061    -0.20400
F1548       F  0.42352126  0.13066670  0.27520538    -0.23000
C1549       C  0.00423166  0.43186346  0.35093840    -0.05900
C1550       C  0.03168466  0.41426235  0.34558206     0.00000
C1551       C  0.05446934  0.41474940  0.36897748    -0.08500
C1552       C  0.05012356  0.43516562  0.39481884    -0.05900
C1553       C  0.02349936  0.45388465  0.39890463     0.00000
C1554       C  0.99949895  0.45122349  0.37746833    -0.08400
C1555       C  0.96909799  0.46891325  0.38232872     0.61900
H1556       H  0.98647257  0.43100845  0.33374115     0.12600
H1557       H  0.06789015  0.43714201  0.41196777     0.12700
C1558       C  0.08307539  0.39376634  0.36761089     0.62200
F1559       F  0.94679026  0.45766405  0.36299806    -0.23000
F1560       F  0.97282526  0.49983368  0.37592130    -0.20300
F1561       F  0.95854920  0.46616046  0.41286836    -0.20000
F1562       F  0.10382327  0.40457958  0.34573429    -0.20000
F1563       F  0.07547158  0.36377501  0.35994551    -0.20400
F1564       F  0.09739469  0.39283766  0.39614704    -0.23000
C1565       C  0.98014289  0.32345105  0.26245218    -0.05900
C1566       C  0.98231671  0.35573387  0.26202474     0.00000
C1567       C  0.95648886  0.37401077  0.25303828    -0.08500
C1568       C  0.92848984  0.35930013  0.24748840    -0.05900
C1569       C  0.92566548  0.32715925  0.25065849     0.00000
C1570       C  0.95228682  0.30877851  0.25684086    -0.08400
C1571       C  0.95135667  0.27379830  0.25816949     0.61900
H1572       H  0.00009614  0.30977925  0.26909152     0.12600
H1573       H  0.90821388  0.37297710  0.24181362     0.12700
C1574       C  0.95872735  0.40866042  0.24841274     0.62200
F1575       F  0.98061439  0.26032885  0.25741162    -0.23000
F1576       F  0.93583577  0.26235284  0.23285335    -0.20300
F1577       F  0.93668667  0.26532519  0.28554316    -0.20000
F1578       F  0.98165630  0.41413197  0.22642554    -0.20000
F1579       F  0.96549805  0.42334972  0.27616454    -0.20400
F1580       F  0.93149705  0.42168395  0.23794497    -0.23000
C1581       C  0.13406552  0.32356168  0.23787371    -0.05900
C1582       C  0.15862809  0.34005539  0.24958020     0.00000
C1583       C  0.15245483  0.36745972  0.26742886    -0.08500
C1584       C  0.12171983  0.37691298  0.27360441    -0.05900
C1585       C  0.09666288  0.35960132  0.26367745     0.00000
C1586       C  0.10307902  0.33254079  0.24471636    -0.08400
C1587       C  0.07792913  0.31203134  0.23289734     0.61900
H1588       H  0.13949871  0.30245337  0.22467671     0.12600
H1589       H  0.11739953  0.39793667  0.28727276     0.12700
C1590       C  0.17719578  0.38699391  0.28178818     0.62200
F1591       F  0.08972423  0.28634985  0.21645831    -0.23000
F1592       F  0.05929469  0.32850318  0.21295591    -0.20300
F1593       F  0.06067471  0.30147102  0.25789107    -0.20000
F1594       F  0.20677368  0.37747421  0.27307237    -0.20000
F1595       F  0.17443256  0.38584727  0.31400371    -0.20400
F1596       F  0.17316860  0.41740238  0.27278204    -0.23000
C1597       C  0.47356099  0.85388212  0.77537850    -0.05900
C1598       C  0.48197877  0.84656519  0.80584814     0.00000
C1599       C  0.46355059  0.82687913  0.82398192    -0.08500
C1600       C  0.43582851  0.81691543  0.81161015    -0.05900
C1601       C  0.42687555  0.82489030  0.78141065     0.00000
C1602       C  0.44635318  0.84302989  0.76256068    -0.08400
C1603       C  0.43845909  0.85112000  0.72928996     0.61900
H1604       H  0.48860793  0.86824639  0.76168434     0.12600
H1605       H  0.42115597  0.80209649  0.82515958     0.12700
C1606       C  0.47407449  0.81491449  0.85526602     0.62200
F1607       F  0.45970356  0.87051611  0.71592586    -0.23000
F1608       F  0.40990832  0.86588004  0.72882593    -0.20300
F1609       F  0.43814551  0.82438728  0.71121870    -0.20000
F1610       F  0.47790792  0.83924731  0.87597610    -0.20000
F1611       F  0.50172945  0.79867011  0.85099940    -0.20400
F1612       F  0.45308967  0.79523149  0.86859166    -0.23000
C1613       C  0.63283524  0.80825815  0.78809085    -0.05900
C1614       C  0.65452347  0.83018354  0.77953977     0.00000
C1615       C  0.64519882  0.86186316  0.77785775    -0.08500
C1616       C  0.61527498  0.87078858  0.78809331    -0.05900
C1617       C  0.59425338  0.84902352  0.79846654     0.00000
C1618       C  0.60261563  0.81707094  0.79737433    -0.08400
C1619       C  0.58024780  0.79244737  0.80715185     0.61900
H1620       H  0.64012949  0.78409506  0.78846883     0.12600
H1621       H  0.60810827  0.89501237  0.78846703     0.12700
C1622       C  0.66627089  0.88606397  0.76472360     0.62200
F1623       F  0.59409289  0.76321223  0.80713026    -0.23000
F1624       F  0.55627313  0.79175613  0.78656478    -0.20300
F1625       F  0.56878249  0.79888956  0.83702950    -0.20000
F1626       F  0.67800222  0.87626401  0.73581343    -0.20000
F1627       F  0.69000700  0.89070217  0.78481206    -0.20400
F1628       F  0.65099876  0.91427079  0.76091328    -0.23000
C1629       C  0.56539162  0.91313612  0.89620721    -0.05900
C1630       C  0.53858884  0.91324813  0.87838492     0.00000
C1631       C  0.51434304  0.93501278  0.88633788    -0.08500
C1632       C  0.51745421  0.95464584  0.91257487    -0.05900
C1633       C  0.54440981  0.95470531  0.92977085     0.00000
C1634       C  0.56906119  0.93403179  0.92127295    -0.08400
C1635       C  0.59957828  0.93501960  0.93771242     0.61900
H1636       H  0.58389457  0.89675995  0.89002710     0.12600
H1637       H  0.49919925  0.97111836  0.91935067     0.12700
C1638       C  0.48613113  0.93926959  0.86644781     0.62200
F1639       F  0.62118726  0.91434996  0.92444239    -0.23000
F1640       F  0.59562845  0.92758360  0.96879282    -0.20300
F1641       F  0.61115860  0.96442074  0.93573096    -0.20000
F1642       F  0.46762089  0.91394596  0.86916094    -0.20000
F1643       F  0.49507118  0.94287514  0.83550713    -0.20400
F1644       F  0.46868029  0.96531082  0.87551767    -0.23000
C1645       C  0.18824356  0.45850576  0.75441720    -0.05900
C1646       C  0.20802500  0.48219236  0.76277411     0.00000
C1647       C  0.24037486  0.47695294  0.75964537    -0.08500
C1648       C  0.25163932  0.44754527  0.74978822    -0.05900
C1649       C  0.23195771  0.42353605  0.74260429     0.00000
C1650       C  0.19971665  0.42914304  0.74406288    -0.08400
C1651       C  0.17763804  0.40375041  0.73629241     0.61900
H1652       H  0.16369288  0.46302940  0.75669139     0.12600
H1653       H  0.27617450  0.44257771  0.74866273     0.12700
C1654       C  0.26319960  0.50165610  0.76790078     0.62200
F1655       F  0.14727538  0.41400077  0.73904700    -0.23000
F1656       F  0.18175792  0.37935736  0.75642020    -0.20300
F1657       F  0.18302046  0.39341555  0.70586745    -0.20000
F1658       F  0.25647080  0.51378926  0.79744712    -0.20000
F1659       F  0.26194819  0.52503015  0.74621408    -0.20400
F1660       F  0.29311994  0.48991494  0.76783342    -0.23000
C1661       C  0.24323945  0.59513244  0.78130357    -0.05900
C1662       C  0.21312174  0.59359414  0.77084354     0.00000
C1663       C  0.20068205  0.61739652  0.75243613    -0.08500
C1664       C  0.21908027  0.64258840  0.74524121    -0.05900
C1665       C  0.24898229  0.64489459  0.75666882     0.00000
C1666       C  0.26151593  0.62057472  0.77487883    -0.08400
C1667       C  0.29370536  0.62114378  0.78786885     0.61900
H1668       H  0.25206276  0.57642037  0.79539741     0.12600
H1669       H  0.20954701  0.66153815  0.73192670     0.12700
C1670       C  0.16795743  0.61654139  0.74125848     0.62200
F1671       F  0.30305767  0.59243595  0.79874433    -0.23000
F1672       F  0.29433364  0.64199053  0.81263557    -0.20300
F1673       F  0.31456521  0.62945199  0.76482578    -0.20000
F1674       F  0.16357925  0.58920541  0.72498132    -0.20000
F1675       F  0.16107394  0.64094667  0.72176555    -0.20400
F1676       F  0.14787077  0.61841200  0.76671847    -0.23000
C1677       C  0.11252293  0.56278330  0.88512773    -0.05900
C1678       C  0.11739288  0.53815290  0.90555855     0.00000
C1679       C  0.13809243  0.51360918  0.89645637    -0.08500
C1680       C  0.15357803  0.51487016  0.86719143    -0.05900
C1681       C  0.14875136  0.53951832  0.84657524     0.00000
C1682       C  0.12745715  0.56385618  0.85561712    -0.08400
C1683       C  0.11924789  0.59030088  0.83403449     0.61900
H1684       H  0.09589958  0.58081235  0.89223708     0.12600
H1685       H  0.17003217  0.49660644  0.86037898     0.12700
C1686       C  0.14386479  0.48615803  0.91746296     0.62200
F1687       F  0.09358113  0.60724027  0.84486320    -0.23000
F1688       F  0.11280229  0.57874265  0.80466769    -0.20300
F1689       F  0.14338895  0.61031442  0.83192990    -0.20000
F1690       F  0.16040351  0.49548386  0.94291372    -0.20000
F1691       F  0.16044931  0.46255782  0.90195366    -0.20400
F1692       F  0.11637026  0.47423017  0.92782471    -0.23000
C1693       C  0.59226830  0.23323575  0.77710774    -0.05900
C1694       C  0.59071284  0.22760992  0.80948035     0.00000
C1695       C  0.61711732  0.23202896  0.82750747    -0.08500
C1696       C  0.64475324  0.23822124  0.81197827    -0.05900
C1697       C  0.64647522  0.24449491  0.77985686     0.00000
C1698       C  0.61967675  0.24236005  0.76198426    -0.08400
C1699       C  0.61974081  0.24990540  0.72749647     0.61900
H1700       H  0.57188247  0.23002695  0.76357609     0.12600
H1701       H  0.66526939  0.23965510  0.82570016     0.12700
C1702       C  0.61747192  0.23214139  0.86306288     0.62200
F1703       F  0.59026772  0.25122091  0.71605019    -0.23000
F1704       F  0.63650243  0.22735858  0.71075235    -0.20300
F1705       F  0.63265401  0.27837372  0.72267310    -0.20000
F1706       F  0.62968426  0.20419768  0.87297178    -0.20000
F1707       F  0.58868067  0.23741123  0.87670815    -0.20400
F1708       F  0.63572433  0.25564954  0.87367388    -0.23000
C1709       C  0.45228680  0.20910151  0.81810263    -0.05900
C1710       C  0.47721091  0.22842700  0.81336405     0.00000
C1711       C  0.47213067  0.25667313  0.79710391    -0.08500
C1712       C  0.44241932  0.26385064  0.78622294    -0.05900
C1713       C  0.41741014  0.24463308  0.79155383     0.00000
C1714       C  0.42248966  0.21661233  0.80827741    -0.08400
C1715       C  0.39736736  0.19370602  0.81543377     0.61900
H1716       H  0.45639702  0.18740234  0.82956814     0.12600
H1717       H  0.43833974  0.28512363  0.77375115     0.12700
C1718       C  0.49727056  0.27980257  0.79147919     0.62200
F1719       F  0.40868009  0.16695120  0.82904230    -0.23000
F1720       F  0.38368055  0.18506395  0.78809305    -0.20300
F1721       F  0.37565152  0.20675076  0.83610036    -0.20000
F1722       F  0.51896046  0.26754266  0.77029569    -0.20000
F1723       F  0.51104367  0.28697750  0.81934546    -0.20400
F1724       F  0.48586478  0.30723082  0.77932734    -0.23000
C1725       C  0.56544760  0.15789670  0.90119215    -0.05900
C1726       C  0.53770448  0.16056385  0.88484074     0.00000
C1727       C  0.51374231  0.14001546  0.89279202    -0.08500
C1728       C  0.51829885  0.11859792  0.91698915    -0.05900
C1729       C  0.54597208  0.11614092  0.93294479     0.00000
C1730       C  0.57020053  0.13578464  0.92467351    -0.08400
C1731       C  0.60123696  0.13282228  0.94001208     0.61900
H1732       H  0.58375028  0.17332813  0.89540481     0.12600
H1733       H  0.50027071  0.10302772  0.92353893     0.12700
C1734       C  0.48368800  0.13965883  0.87562209     0.62200
F1735       F  0.62262102  0.15192195  0.92644381    -0.23000
F1736       F  0.61251264  0.10264279  0.93707616    -0.20300
F1737       F  0.59828701  0.14076860  0.97134349    -0.20000
F1738       F  0.48952903  0.13652283  0.84379406    -0.20000
F1739       F  0.46701397  0.16676165  0.88217254    -0.20400
F1740       F  0.46568714  0.11526597  0.88456766    -0.23000
C1741       C  0.86415241  0.60977556  0.81233678    -0.05900
C1742       C  0.86358888  0.58669402  0.78891454     0.00000
C1743       C  0.85282153  0.59458655  0.75888614    -0.08500
C1744       C  0.84106803  0.62490182  0.75437600    -0.05900
C1745       C  0.84092883  0.64751291  0.77832419     0.00000
C1746       C  0.85410382  0.64022204  0.80736941    -0.08400
C1747       C  0.85884444  0.66436820  0.83295931     0.61900
H1748       H  0.87247613  0.60384930  0.83516385     0.12600
H1749       H  0.83175955  0.63118573  0.73203007     0.12700
C1750       C  0.85466591  0.57191312  0.73139093     0.62200
F1751       F  0.83108678  0.67229964  0.84766333    -0.23000
F1752       F  0.87165149  0.69044338  0.82035241    -0.20300
F1753       F  0.87857261  0.65351481  0.85548395    -0.20000
F1754       F  0.83383849  0.54872952  0.73579327    -0.20000
F1755       F  0.88408651  0.55907079  0.72841036    -0.20400
F1756       F  0.84800167  0.58625911  0.70354263    -0.23000
C1757       C  0.82802204  0.47233935  0.78013648    -0.05900
C1758       C  0.86013034  0.47274071  0.78239546     0.00000
C1759       C  0.87812551  0.44621816  0.77331655    -0.08500
C1760       C  0.86304357  0.41911321  0.76514379    -0.05900
C1761       C  0.83083130  0.41807518  0.76452461     0.00000
C1762       C  0.81290590  0.44537685  0.77114688    -0.08400
C1763       C  0.77810131  0.44585989  0.77004357     0.61900
H1764       H  0.81476120  0.49315896  0.78652563     0.12600
H1765       H  0.87644432  0.39811069  0.75982173     0.12700
C1766       C  0.91301249  0.44656482  0.77163896     0.62200
F1767       F  0.76526381  0.47432979  0.77926121    -0.23000
F1768       F  0.76655944  0.42375438  0.78975613    -0.20300
F1769       F  0.76917364  0.43979797  0.73986033    -0.20000
F1770       F  0.92456742  0.44714596  0.80138888    -0.20000
F1771       F  0.92246694  0.47238503  0.75570280    -0.20400
F1772       F  0.92546073  0.42063612  0.75610948    -0.23000
C1773       C  0.94423596  0.54892198  0.86393374    -0.05900
C1774       C  0.92374593  0.52457119  0.86076009     0.00000
C1775       C  0.92074449  0.50314612  0.88549676    -0.08500
C1776       C  0.94042584  0.50548011  0.91109842    -0.05900
C1777       C  0.96095835  0.52977795  0.91383984     0.00000
C1778       C  0.96151519  0.55291493  0.89077129    -0.08400
C1779       C  0.98005249  0.58207824  0.89340366     0.61900
H1780       H  0.94609487  0.56582163  0.84555888     0.12600
H1781       H  0.94011928  0.48819438  0.92915764     0.12700
C1782       C  0.89631932  0.47874817  0.88577618     0.62200
F1783       F  0.96279163  0.60726548  0.88336039    -0.23000
F1784       F  0.00634612  0.57888653  0.87475176    -0.20300
F1785       F  0.98822476  0.58849671  0.92378891    -0.20000
F1786       F  0.90318382  0.45642708  0.86304557    -0.20000
F1787       F  0.86784553  0.49240617  0.88035666    -0.20400
F1788       F  0.89438052  0.46413272  0.91428853    -0.23000
C1789       C  0.84434703  0.46738823  0.22152290    -0.05900
C1790       C  0.83930119  0.47334835  0.18988985     0.00000
C1791       C  0.82381965  0.45154760  0.17141976    -0.08500
C1792       C  0.81538183  0.42366352  0.18506434    -0.05900
C1793       C  0.82134462  0.41709980  0.21637652     0.00000
C1794       C  0.83568239  0.43942995  0.23523553    -0.08400
C1795       C  0.84289717  0.43340484  0.26916424     0.61900
H1796       H  0.85585388  0.48464028  0.23524152     0.12600
H1797       H  0.80392946  0.40662920  0.17095905     0.12700
C1798       C  0.81502160  0.45624826  0.13764459     0.62200
F1799       F  0.85970389  0.45690526  0.28209499    -0.23000
F1800       F  0.85990295  0.40603812  0.27137917    -0.20300
F1801       F  0.81585658  0.43134758  0.28650073    -0.20000
F1802       F  0.82926912  0.43333972  0.11909003    -0.20000
F1803       F  0.82292015  0.48467705  0.12606902    -0.20400
F1804       F  0.78353534  0.45385552  0.13533263    -0.23000
C1805       C  0.82558017  0.62611553  0.22632479    -0.05900
C1806       C  0.81390500  0.64622175  0.20378612     0.00000
C1807       C  0.81228360  0.63609820  0.17233930    -0.08500
C1808       C  0.82384232  0.60624440  0.16417909    -0.05900
C1809       C  0.83618161  0.58643843  0.18661848     0.00000
C1810       C  0.83653644  0.59609506  0.21835894    -0.08400
C1811       C  0.84936329  0.57527438  0.24351015     0.61900
H1812       H  0.82662949  0.63448912  0.25025332     0.12600
H1813       H  0.82372969  0.59820353  0.14009270     0.12700
C1814       C  0.79958609  0.65714589  0.14744361     0.62200
F1815       F  0.85101840  0.59069370  0.27198563    -0.23000
F1816       F  0.87868732  0.56467290  0.23494310    -0.20300
F1817       F  0.83059199  0.55030847  0.24756747    -0.20000
F1818       F  0.81676624  0.68352579  0.14553935    -0.20000
F1819       F  0.76935545  0.66543141  0.15488551    -0.20400
F1820       F  0.80035984  0.64269488  0.11836869    -0.23000
C1821       C  0.95185067  0.50313054  0.08593912    -0.05900
C1822       C  0.96329167  0.53192758  0.07797479     0.00000
C1823       C  0.95162657  0.55891510  0.09359139    -0.08500
C1824       C  0.92776349  0.55620584  0.11607468    -0.05900
C1825       C  0.91483784  0.52746673  0.12334319     0.00000
C1826       C  0.92793506  0.50010525  0.10841392    -0.08400
C1827       C  0.91685882  0.46771845  0.11499074     0.61900
H1828       H  0.96161485  0.48294608  0.07365370     0.12600
H1829       H  0.91860221  0.57701360  0.12764116     0.12700
C1830       C  0.96373916  0.59055738  0.08571990     0.62200
F1831       F  0.93337493  0.44517596  0.09785565    -0.23000
F1832       F  0.88640442  0.46569446  0.10702290    -0.20300
F1833       F  0.92029441  0.46101383  0.14623700    -0.20000
F1834       F  0.95694450  0.59754823  0.05519715    -0.20000
F1835       F  0.99524343  0.59058624  0.08908601    -0.20400
F1836       F  0.95081990  0.61368364  0.10500641    -0.23000
C1837       C  0.60535142  0.80421707  0.22182271    -0.05900
C1838       C  0.60370311  0.81318238  0.19043234     0.00000
C1839       C  0.62788121  0.80392340  0.16917153    -0.08500
C1840       C  0.65436891  0.78932877  0.18096547    -0.05900
C1841       C  0.65728996  0.78410337  0.21297673     0.00000
C1842       C  0.63167469  0.78938663  0.23340261    -0.08400
C1843       C  0.63104330  0.77986291  0.26739441     0.61900
H1844       H  0.58633282  0.80986683  0.23788821     0.12600
H1845       H  0.67397465  0.78411299  0.16558140     0.12700
C1846       C  0.62640561  0.80996219  0.13444407     0.62200
F1847       F  0.60629715  0.76108066  0.27268430    -0.23000
F1848       F  0.62764849  0.80594236  0.28640262    -0.20300
F1849       F  0.65729831  0.76349355  0.27565582    -0.20000
F1850       F  0.63033417  0.84104251  0.12917413    -0.20000
F1851       F  0.59835780  0.80119920  0.12325313    -0.20400
F1852       F  0.64920918  0.79345488  0.11772344    -0.23000
C1853       C  0.45426146  0.81083906  0.23418667    -0.05900
C1854       C  0.43018865  0.81712345  0.21369810     0.00000
C1855       C  0.43701349  0.83135134  0.18463023    -0.08500
C1856       C  0.46756823  0.83801035  0.17717008    -0.05900
C1857       C  0.49160287  0.83189880  0.19754568     0.00000
C1858       C  0.48490503  0.81830339  0.22690006    -0.08400
C1859       C  0.50940569  0.81236534  0.25093678     0.61900
H1860       H  0.44878020  0.80026927  0.25633207     0.12600
H1861       H  0.47298969  0.84821845  0.15485179     0.12700
C1862       C  0.41272051  0.83919230  0.16085902     0.62200
F1863       F  0.49685078  0.80329393  0.27928460    -0.23000
F1864       F  0.52534318  0.83909606  0.25627763    -0.20300
F1865       F  0.52949767  0.78898795  0.24032406    -0.20000
F1866       F  0.39381481  0.86332912  0.17204457    -0.20000
F1867       F  0.39556467  0.81357836  0.15515903    -0.20400
F1868       F  0.42539863  0.84805468  0.13250360    -0.23000
C1869       C  0.57967103  0.90316348  0.11342158    -0.05900
C1870       C  0.55506783  0.90220782  0.13535607     0.00000
C1871       C  0.53311501  0.92745877  0.13643089    -0.08500
C1872       C  0.53542667  0.95094403  0.11404541    -0.05900
C1873       C  0.55927483  0.95100596  0.09152061     0.00000
C1874       C  0.58247867  0.92738974  0.09185744    -0.08400
C1875       C  0.61049572  0.92826657  0.07009607     0.61900
H1876       H  0.59660144  0.88443377  0.11281373     0.12600
H1877       H  0.51819468  0.96950282  0.11360873     0.12700
C1878       C  0.50725662  0.93037118  0.16092305     0.62200
F1879       F  0.63167046  0.90472358  0.07612204    -0.23000
F1880       F  0.62478581  0.95619699  0.07396534    -0.20300
F1881       F  0.60192493  0.92511761  0.03938880    -0.20000
F1882       F  0.51847647  0.92484358  0.19035607    -0.20000
F1883       F  0.48470291  0.90959137  0.15414963    -0.20400
F1884       F  0.49369463  0.95975706  0.16171800    -0.23000
C1885       C  0.82796418  0.81778009  0.45010136    -0.05900
C1886       C  0.85802878  0.82863949  0.45130904     0.00000
C1887       C  0.87548784  0.83148417  0.42313552    -0.08500
C1888       C  0.86239287  0.82246974  0.39497744    -0.05900
C1889       C  0.83231941  0.81169555  0.39362590     0.00000
C1890       C  0.81442297  0.80978823  0.42165795    -0.08400
C1891       C  0.78090906  0.80095919  0.42174494     0.61900
H1892       H  0.81481143  0.81626104  0.47175508     0.12600
H1893       H  0.87572825  0.82404435  0.37340346     0.12700
C1894       C  0.90763546  0.84424083  0.42222506     0.62200
F1895       F  0.76731416  0.80375018  0.45128476    -0.23000
F1896       F  0.77847022  0.77055811  0.41191189    -0.20300
F1897       F  0.76475784  0.82025305  0.40209672    -0.20000
F1898       F  0.92586780  0.82934516  0.44371716    -0.20000
F1899       F  0.90576940  0.87564469  0.42877319    -0.20400
F1900       F  0.92188470  0.84034890  0.39311815    -0.23000
C1901       C  0.88909927  0.80203086  0.58681438    -0.05900
C1902       C  0.86726435  0.80466810  0.56319501     0.00000
C1903       C  0.83793623  0.79141292  0.56792868    -0.08500
C1904       C  0.83045784  0.77982887  0.59756801    -0.05900
C1905       C  0.85128297  0.78025272  0.62186435     0.00000
C1906       C  0.88164118  0.78958564  0.61610248    -0.08400
C1907       C  0.90565209  0.78687803  0.64106202     0.61900
H1908       H  0.91181812  0.81088211  0.58256321     0.12600
H1909       H  0.80742606  0.77221773  0.60278545     0.12700
C1910       C  0.81378033  0.79080748  0.54290609     0.62200
F1911       F  0.93407931  0.79643340  0.63043042    -0.23000
F1912       F  0.90873695  0.75627281  0.64976431    -0.20300
F1913       F  0.89684557  0.80481670  0.66693481    -0.20000
F1914       F  0.82476534  0.77331636  0.51749936    -0.20000
F1915       F  0.80651451  0.82064147  0.53378555    -0.20400
F1916       F  0.78689284  0.77762467  0.55342068    -0.23000
C1917       C  0.93829964  0.90121689  0.49220270    -0.05900
C1918       C  0.91960131  0.89472631  0.51835454     0.00000
C1919       C  0.92021026  0.91453094  0.54515960    -0.08500
C1920       C  0.94024368  0.93964510  0.54479552    -0.05900
C1921       C  0.95880327  0.94568880  0.51848285     0.00000
C1922       C  0.95718526  0.92685277  0.49137227    -0.08400
C1923       C  0.97517322  0.93390085  0.46153300     0.61900
H1924       H  0.93850104  0.88560161  0.47230961     0.12600
H1925       H  0.94186944  0.95465101  0.56514344     0.12700
C1926       C  0.89976350  0.90968196  0.57379115     0.62200
F1927       F  0.96716003  0.91492844  0.43685683    -0.23000
F1928       F  0.00629565  0.92960464  0.46610090    -0.20300
F1929       F  0.96925495  0.96420033  0.45302982    -0.20000
F1930       F  0.90915602  0.88302876  0.58874696    -0.20000
F1931       F  0.86953231  0.90721721  0.56505922    -0.20400
F1932       F  0.90101291  0.93410626  0.59498551    -0.23000
C1933       C  0.78253912  0.21156744  0.56146007    -0.05900
C1934       C  0.80318978  0.18576070  0.56051012     0.00000
C1935       C  0.80824377  0.16971891  0.58882353    -0.08500
C1936       C  0.79792743  0.18360270  0.61722399    -0.05900
C1937       C  0.78026182  0.21116910  0.61820139     0.00000
C1938       C  0.77057690  0.22428866  0.58994627    -0.08400
C1939       C  0.74869782  0.25222658  0.59011182     0.61900
H1940       H  0.77719480  0.22302360  0.53996344     0.12600
H1941       H  0.80471297  0.17341320  0.63910732     0.12700
C1942       C  0.82558892  0.13892931  0.59050556     0.62200
F1943       F  0.74201643  0.26150535  0.56014245    -0.23000
F1944       F  0.76145899  0.27680385  0.60569624    -0.20300
F1945       F  0.72144570  0.24483789  0.60510275    -0.20000
F1946       F  0.85614144  0.14421596  0.59599625    -0.20000
F1947       F  0.82291428  0.12150965  0.56337846    -0.20400
F1948       F  0.81391646  0.12161218  0.61478867    -0.23000
C1949       C  0.79380461  0.23648770  0.41213947    -0.05900
C1950       C  0.80864754  0.22327574  0.38559847     0.00000
C1951       C  0.82620941  0.19548072  0.38832724    -0.08500
C1952       C  0.82986347  0.18285322  0.41810537    -0.05900
C1953       C  0.81723408  0.19728352  0.44537388     0.00000
C1954       C  0.79767837  0.22408402  0.44216416    -0.08400
C1955       C  0.78097769  0.23993188  0.46979616     0.61900
H1956       H  0.77952289  0.25710407  0.40910251     0.12600
H1957       H  0.84325213  0.16160192  0.42030552     0.12700
C1958       C  0.84123306  0.17924747  0.35994738     0.62200
F1959       F  0.76420082  0.26597358  0.46109417    -0.23000
F1960       F  0.80191746  0.24924827  0.49155935    -0.20300
F1961       F  0.76059597  0.21968617  0.48311665    -0.20000
F1962       F  0.86429628  0.19720133  0.34802351    -0.20000
F1963       F  0.81977349  0.17460429  0.33724837    -0.20400
F1964       F  0.85408856  0.15066540  0.36721358    -0.23000
C1965       C  0.90406045  0.12615301  0.53282753    -0.05900
C1966       C  0.89816178  0.14386428  0.50616969     0.00000
C1967       C  0.92174120  0.14472376  0.48235437    -0.08500
C1968       C  0.94851235  0.12572861  0.48516870    -0.05900
C1969       C  0.95325187  0.10706347  0.51122530     0.00000
C1970       C  0.93144272  0.10873957  0.53632748    -0.08400
C1971       C  0.93536510  0.09194549  0.56696894     0.61900
H1972       H  0.88683744  0.12530814  0.55130794     0.12600
H1973       H  0.96552945  0.12425266  0.46628756     0.12700
C1974       C  0.91916310  0.16488021  0.45371827     0.62200
F1975       F  0.92975150  0.11256677  0.59162343    -0.23000
F1976       F  0.96459237  0.07930041  0.57031706    -0.20300
F1977       F  0.91440353  0.06856081  0.56891283    -0.20000
F1978       F  0.91060362  0.19489486  0.46251321    -0.20000
F1979       F  0.89782873  0.15289546  0.43386108    -0.20400
F1980       F  0.94683360  0.16609846  0.43720245    -0.23000
C1981       C  0.23833011  0.79402207  0.55808752    -0.05900
C1982       C  0.20817020  0.80684087  0.55863115     0.00000
C1983       C  0.19164489  0.80967499  0.58765694    -0.08500
C1984       C  0.20663620  0.80128736  0.61511520    -0.05900
C1985       C  0.23709032  0.79004929  0.61446461     0.00000
C1986       C  0.25315498  0.78562338  0.58568729    -0.08400
C1987       C  0.28583747  0.77241652  0.58439600     0.61900
H1988       H  0.25065957  0.79147279  0.53588744     0.12600
H1989       H  0.19497920  0.80448598  0.63764360     0.12700
C1990       C  0.15855930  0.82175556  0.59019972     0.62200
F1991       F  0.29817655  0.77186160  0.55427033    -0.23000
F1992       F  0.28609303  0.74243210  0.59526381    -0.20300
F1993       F  0.30439852  0.79014434  0.60286804    -0.20000
F1994       F  0.14108335  0.80766691  0.56779450    -0.20000
F1995       F  0.15756746  0.85345845  0.58624841    -0.20400
F1996       F  0.14533470  0.81573882  0.61914804    -0.23000
C1997       C  0.23993322  0.79769626  0.44176781    -0.05900
C1998       C  0.20773686  0.79952611  0.44435176     0.00000
C1999       C  0.19006145  0.79092978  0.41834747    -0.08500
C2000       C  0.20537663  0.78386218  0.38972272    -0.05900
C2001       C  0.23744405  0.78485612  0.38658100     0.00000
C2002       C  0.25516954  0.79075976  0.41315476    -0.08400
C2003       C  0.28997930  0.79128954  0.41103268     0.61900
H2004       H  0.25317759  0.80392559  0.46191051     0.12600
H2005       H  0.19207529  0.77843729  0.36938145     0.12700
C2006       C  0.15538786  0.78857095  0.41937991     0.62200
F2007       F  0.30282678  0.79127759  0.44029479    -0.23000
F2008       F  0.29882426  0.81775996  0.39600026    -0.20300
F2009       F  0.30151971  0.76551565  0.39460466    -0.20000
F2010       F  0.14253833  0.81167320  0.40141743    -0.20000
F2011       F  0.14305131  0.79085772  0.44937131    -0.20400
F2012       F  0.14742691  0.76018258  0.40712070    -0.23000
C2013       C  0.15337709  0.90563305  0.52546493    -0.05900
C2014       C  0.14981638  0.88527960  0.49978329     0.00000
C2015       C  0.12862999  0.89398766  0.47634365    -0.08500
C2016       C  0.11141221  0.92195301  0.48024498    -0.05900
C2017       C  0.11442600  0.94137964  0.50638990     0.00000
C2018       C  0.13597195  0.93344376  0.52927400    -0.08400
C2019       C  0.14026177  0.95406450  0.55776449     0.61900
H2020       H  0.16998427  0.89955073  0.54290554     0.12600
H2021       H  0.09458674  0.92868306  0.46320766     0.12700
C2022       C  0.12283643  0.87372586  0.44796721     0.62200
F2023       F  0.15110166  0.98230654  0.54846402    -0.23000
F2024       F  0.16111142  0.94117584  0.57812552    -0.20300
F2025       F  0.11255922  0.95873609  0.57384326    -0.20000
F2026       F  0.11422607  0.84481437  0.45760493    -0.20000
F2027       F  0.14908931  0.87125085  0.42917681    -0.20400
F2028       F  0.09948666  0.88573267  0.42994103    -0.23000
loop_ 
_geom_bond_atom_site_label_1 
_geom_bond_atom_site_label_2 
_geom_bond_distance 
_geom_bond_site_symmetry_2 
_ccdc_geom_bond_type 
C1            N2   1.357       .  A
C1            N6   1.357       .  A
C1         C1982   1.488       .  S
N2            C3   1.361       .  A
C3            N4   1.361       .  A
C3         C2014   1.502       .  S
N4            C5   1.362       .  A
C5            N6   1.357       .  A
C5         C1998   1.478       .  S
C7            N8   1.361       .  A
C7           N12   1.363       .  A
C7         C1953   1.501       .  S
N8            C9   1.362       .  A
C9           N10   1.363       .  A
C9         C1934   1.502       .  S
N10          C11   1.363       .  A
C11          N12   1.358       .  A
C11        C1966   1.510       .  S
C13          N14   1.354       .  A
C13          N18   1.357       .  A
C13        C1886   1.483       .  S
N14          C15   1.357       .  A
C15          N16   1.358       .  A
C15        C1918   1.488       .  S
N16          C17   1.362       .  A
C17          N18   1.357       .  A
C17        C1902   1.489       .  S
C19          N20   1.359       .  A
C19          N24   1.366       .  A
C19        C1838   1.484       .  S
N20          C21   1.353       .  A
C21          N22   1.358       .  A
C21        C1857   1.488       .  S
N22          C23   1.355       .  A
C23          N24   1.365       .  A
C23        C1870   1.505       .  S
C25          N26   1.353       .  A
C25          N30   1.358       .  A
C25        C1790   1.469       .  S
N26          C27   1.354       .  A
C27          N28   1.360       .  A
C27        C1809   1.473       .  S
N28          C29   1.363       .  A
C29          N30   1.359       .  A
C29        C1825   1.509       .  S
C31          N32   1.361       .  A
C31          N36   1.359       .  A
C31        C1758   1.476       .  S
N32          C33   1.357       .  A
C33          N34   1.353       .  A
C33        C1774   1.489       .  S
N34          C35   1.356       .  A
C35          N36   1.356       .  A
C35        C1742   1.487       .  S
C37          N38   1.356       .  A
C37          N42   1.360       .  A
C37        C1694   1.481       .  S
N38          C39   1.355       .  A
C39          N40   1.369       .  A
C39        C1710   1.503       .  S
N40          C41   1.363       .  A
C41          N42   1.359       .  A
C41        C1726   1.512       .  S
C43          N44   1.351       .  A
C43          N48   1.355       .  A
C43        C1662   1.464       .  S
N44          C45   1.352       .  A
C45          N46   1.365       .  A
C45        C1646   1.484       .  S
N46          C47   1.367       .  A
C47          N48   1.358       .  A
C47        C1681   1.496       .  S
C49          N50   1.359       .  A
C49          N54   1.354       .  A
C49        C1598   1.472       .  S
N50          C51   1.359       .  A
C51          N52   1.361       .  A
C51        C1630   1.496       .  S
N52          C53   1.359       .  A
C53          N54   1.354       .  A
C53        C1617   1.476       .  S
C55          N56   1.363       .  A
C55          N60   1.358       .  A
C55        C1566   1.488   1_455  S
N56          C57   1.364       .  A
C57          N58   1.365       .  A
C57        C1585   1.510       .  S
N58          C59   1.360       .  A
C59          N60   1.360       .  A
C59        C1550   1.502       .  S
Zr61         O62   2.437       .  S
Zr61         O63   2.423       .  S
Zr61         O64   2.458       .  S
Zr61         O67   2.453       .  S
Zr61         O69   2.381       .  S
Zr61         O70   2.383       .  S
Zr61         O71   2.412       .  S
Zr61         O72   2.411       .  S
O62         H118   0.990       .  S
O62         H126   0.990       .  S
O63          C83   1.283       .  A
O64          C85   1.289       .  A
O65         Zr75   2.423       .  S
O65          C84   1.283       .  A
O66         Zr74   2.434       .  S
O66          C85   1.285       .  A
O67          C84   1.288       .  A
O68         Zr76   2.431       .  S
O68          C83   1.283       .  A
O69         Zr74   2.382       .  S
O69         Zr76   2.377       .  S
O70         Zr75   2.379       .  S
O70         Zr76   2.369       .  S
O70         H105   0.966       .  S
O71         Zr74   2.394       .  S
O71         Zr91   2.409       .  S
O71         H108   0.966       .  S
O72         Zr75   2.389       .  S
O72         Zr91   2.409       .  S
Zr73         O98   2.436       .  S
Zr73         O92   2.404       .  S
Zr73        O100   2.467       .  S
Zr73         O88   2.460       .  S
Zr73         O79   2.403       .  S
Zr73         O80   2.405       .  S
Zr73         O81   2.382       .  S
Zr73         O82   2.385       .  S
Zr74         O93   2.436       .  S
Zr74         O86   2.436       .  S
Zr74         O87   2.414       .  S
Zr74         O80   2.399       .  S
Zr74         O81   2.387       .  S
Zr75         O77   2.436       .  S
Zr75         O99   2.439       .  S
Zr75        O101   2.416       .  S
Zr75         O79   2.402       .  S
Zr75         O82   2.386       .  S
Zr76        O102   2.435       .  S
Zr76        O103   2.436       .  S
Zr76         O78   2.436       .  S
Zr76         O79   2.403       .  S
Zr76         O80   2.393       .  S
O77         H114   0.990       .  S
O78         H109   0.990       .  S
O78         H123   0.990       .  S
O80         H106   0.966       .  S
O81         Zr91   2.369       .  S
O82         Zr91   2.374       .  S
O82         H107   0.966       .  S
C83        C1537   1.472       .  S
C84        C1489   1.476       .  S
C85        C1470   1.487       .  S
O86         H122   0.990       .  S
O87          C89   1.281       .  A
O88          C89   1.289       .  A
C89        C1582   1.477       .  S
O90         Zr91   2.436       .  S
O90         H119   0.990       .  S
Zr91         O94   2.434       .  S
Zr91         O95   2.437       .  S
Zr91         O96   2.458       .  S
O92          C97   1.280       .  A
O93         H110   0.990       .  S
O93         H125   0.988       .  S
O94         H111   0.989       .  S
O95         H115   0.990       .  S
O95         H124   0.989       .  S
O96          C97   1.288       .  A
C97        C1502   1.485       .  S
O98         H117   0.991       .  S
O98         H121   0.990       .  S
O99         H113   0.990       .  S
O99         H120   0.990       .  S
O100        C104   1.291       .  A
O101        C104   1.281       .  A
O102        H112   0.990       .  S
O103        H116   0.990       .  S
C104       C1518   1.487       .  S
C127        N128   1.356       .  A
C127        N132   1.363       .  A
C127       C1454   1.484   1_545  S
N128        C129   1.356       .  A
C129        N130   1.356       .  A
C129       C1534   1.473       .  S
N130        C131   1.356       .  A
C131        N132   1.363       .  A
C131       C1438   1.495       .  S
Zr133       O134   2.439       .  S
Zr133       O135   2.407       .  S
Zr133       O136   2.448       .  S
Zr133       O139   2.444       .  S
Zr133       O141   2.374       .  S
Zr133       O142   2.384       .  S
Zr133       O143   2.398       .  S
Zr133       O144   2.402       .  S
O134        H190   0.990       .  S
O134        H198   0.990       .  S
O135        C155   1.277       .  A
O136        C157   1.287       .  A
O137       Zr147   2.405       .  S
O137        C156   1.279       .  A
O138       Zr146   2.409       .  S
O138        C157   1.280       .  A
O139        C156   1.286       .  A
O140       Zr148   2.445       .  S
O140        C155   1.287       .  A
O141       Zr146   2.379       .  S
O141       Zr148   2.369       .  S
O142       Zr147   2.386       .  S
O142       Zr148   2.367       .  S
O142        H177   0.966       .  S
O143       Zr146   2.395       .  S
O143       Zr163   2.393       .  S
O143        H180   0.966       .  S
O144       Zr147   2.396       .  S
O144       Zr163   2.398       .  S
Zr145       O170   2.438       .  S
Zr145       O164   2.406       .  S
Zr145       O172   2.448       .  S
Zr145       O160   2.439       .  S
Zr145       O151   2.400       .  S
Zr145       O152   2.407       .  S
Zr145       O153   2.377       .  S
Zr145       O154   2.379       .  S
Zr146       O165   2.438       .  S
Zr146       O158   2.433       .  S
Zr146       O159   2.416       .  S
Zr146       O152   2.394       .  S
Zr146       O153   2.378       .  S
Zr147       O149   2.435       .  S
Zr147       O171   2.437       .  S
Zr147       O173   2.420       .  S
Zr147       O151   2.391       .  S
Zr147       O154   2.379       .  S
Zr148       O174   2.436       .  S
Zr148       O175   2.435       .  S
Zr148       O150   2.437       .  S
Zr148       O151   2.406       .  S
Zr148       O152   2.405       .  S
O149        H186   0.990       .  S
O150        H181   0.990       .  S
O150        H195   0.990       .  S
O152        H178   0.966       .  S
O153       Zr163   2.368       .  S
O154       Zr163   2.377       .  S
O154        H179   0.966       .  S
C155       C1854   1.491       .  S
C156       C1406   1.465       .  S
C157       C1457   1.471       .  S
O158        H194   0.990       .  S
O159        C161   1.281       .  A
O160        C161   1.285       .  A
C161       C2001   1.473       .  S
O162       Zr163   2.437       .  S
O162        H191   0.990       .  S
Zr163       O166   2.436       .  S
Zr163       O167   2.438       .  S
Zr163       O168   2.427       .  S
O164        C169   1.280       .  A
O165        H182   0.990       .  S
O165        H197   0.990       .  S
O166        H183   0.990       .  S
O167        H187   0.990       .  S
O167        H196   0.990       .  S
O168        C169   1.283       .  A
C169       C1422   1.469       .  S
O170        H189   0.990       .  S
O170        H193   0.990       .  S
O171        H185   0.990       .  S
O171        H192   0.990       .  S
O172        C176   1.287       .  A
O173        C176   1.282       .  A
O174        H184   0.990       .  S
O175        H188   0.990       .  S
C176       C1393   1.473       .  S
Zr199       O200   2.436       .  S
Zr199       O201   2.407       .  S
Zr199       O202   2.448       .  S
Zr199       O205   2.431       .  S
Zr199       O207   2.377       .  S
Zr199       O208   2.384       .  S
Zr199       O209   2.400       .  S
Zr199       O210   2.404       .  S
O200        H256   0.991       .  S
O200        H264   0.990       .  S
O201        C221   1.280       .  A
O202        C223   1.287       .  A
O203       Zr213   2.443       .  S
O203        C222   1.287       .  A
O204       Zr212   2.424       .  S
O204        C223   1.284       .  A
O205        C222   1.285       .  A
O206       Zr214   2.464       .  S
O206        C221   1.289       .  A
O207       Zr212   2.387       .  S
O207       Zr214   2.367       .  S
O208       Zr213   2.383       .  S
O208       Zr214   2.363       .  S
O208        H243   0.964       .  S
O209       Zr212   2.395       .  S
O209       Zr229   2.397       .  S
O209        H246   0.966       .  S
O210       Zr213   2.402       .  S
O210       Zr229   2.401       .  S
Zr211       O236   2.437       .  S
Zr211       O230   2.419       .  S
Zr211       O238   2.459       .  S
Zr211       O226   2.455       .  S
Zr211       O217   2.407       .  S
Zr211       O218   2.410       .  S
Zr211       O219   2.377       .  S
Zr211       O220   2.383       .  S
Zr212       O231   2.434       .  S
Zr212       O224   2.435       .  S
Zr212       O225   2.422       .  S
Zr212       O218   2.395       .  S
Zr212       O219   2.379       .  S
Zr213       O215   2.435       .  S
Zr213       O237   2.432       .  S
Zr213       O239   2.442       .  S
Zr213       O217   2.393       .  S
Zr213       O220   2.386       .  S
Zr214       O240   2.436       .  S
Zr214       O241   2.436       .  S
Zr214       O216   2.437       .  S
Zr214       O217   2.415       .  S
Zr214       O218   2.405       .  S
O215        H252   0.990       .  S
O216        H247   0.990       .  S
O216        H261   0.990       .  S
O218        H244   0.966       .  S
O219       Zr229   2.373       .  S
O220       Zr229   2.372       .  S
O220        H245   0.966       .  S
C221       C1374   1.489       .  S
C222       C1950   1.478       .  S
C223       C1345   1.481       .  S
O224        H260   0.990       .  S
O225        C227   1.285       .  A
O226        C227   1.287       .  A
C227       C1358   1.511       .  S
O228       Zr229   2.435       .  S
O228        H257   0.990       .  S
Zr229       O232   2.436       .  S
Zr229       O233   2.437       .  S
Zr229       O234   2.437       .  S
O230        C235   1.283       .  A
O231        H248   0.990       .  S
O231        H263   0.989       .  S
O232        H249   0.990       .  S
O233        H253   0.990       .  S
O233        H262   0.990       .  S
O234        C235   1.284       .  A
C235       C1793   1.477       .  S
O236        H255   0.990       .  S
O236        H259   0.990       .  S
O237        H251   0.990       .  S
O237        H258   0.989       .  S
O238        C242   1.290       .  A
O239        C242   1.286       .  A
O240        H250   0.990       .  S
O241        H254   0.990       .  S
C242       C1569   1.492       .  S
C265        N266   1.356       .  A
C265        N270   1.362       .  A
C265       C1377   1.479       .  S
N266        C267   1.359       .  A
C267        N268   1.357       .  A
C267       C1326   1.484   1_545  S
N268        C269   1.360       .  A
C269        N270   1.361       .  A
C269       C1310   1.502       .  S
Zr271       O272   2.437       .  S
Zr271       O273   2.411       .  S
Zr271       O274   2.431       .  S
Zr271       O277   2.452       .  S
Zr271       O279   2.384       .  S
Zr271       O280   2.377       .  S
Zr271       O281   2.411       .  S
Zr271       O282   2.399       .  S
O272        H328   0.990       .  S
O272        H336   0.990       .  S
O273        C293   1.282       .  A
O274        C295   1.283       .  A
O275       Zr285   2.411       .  S
O275        C294   1.280       .  A
O276       Zr284   2.422       .  S
O276        C295   1.282       .  A
O277        C294   1.288       .  A
O278       Zr286   2.437       .  S
O278        C293   1.283       .  A
O279       Zr284   2.384       .  S
O279       Zr286   2.369       .  S
O280       Zr285   2.384       .  S
O280       Zr286   2.375       .  S
O280        H315   0.966       .  S
O281       Zr284   2.400       .  S
O281       Zr301   2.396       .  S
O281        H318   0.966       .  S
O282       Zr285   2.388       .  S
O282       Zr301   2.403       .  S
Zr283       O308   2.439       .  S
Zr283       O302   2.420       .  S
Zr283       O310   2.442       .  S
Zr283       O298   2.428       .  S
Zr283       O289   2.395       .  S
Zr283       O290   2.407       .  S
Zr283       O291   2.378       .  S
Zr283       O292   2.380       .  S
Zr284       O303   2.434       .  S
Zr284       O296   2.437       .  S
Zr284       O297   2.421       .  S
Zr284       O290   2.390       .  S
Zr284       O291   2.377       .  S
Zr285       O287   2.435       .  S
Zr285       O309   2.438       .  S
Zr285       O311   2.403       .  S
Zr285       O289   2.387       .  S
Zr285       O292   2.382       .  S
Zr286       O312   2.438       .  S
Zr286       O313   2.436       .  S
Zr286       O288   2.436       .  S
Zr286       O289   2.400       .  S
Zr286       O290   2.397       .  S
O287        H324   0.990       .  S
O288        H319   0.990       .  S
O288        H333   0.990       .  S
O290        H316   0.966       .  S
O291       Zr301   2.368       .  S
O292       Zr301   2.379       .  S
O292        H317   0.966       .  S
C293       C1889   1.484       .  S
C294       C1294   1.476       .  S
C295       C1329   1.464       .  S
O296        H332   0.990       .  S
O297        C299   1.283       .  A
O298        C299   1.283       .  A
C299       C1841   1.468       .  S
O300       Zr301   2.436       .  S
O300        H329   0.990       .  S
Zr301       O304   2.435       .  S
Zr301       O305   2.437       .  S
Zr301       O306   2.440       .  S
O302        C307   1.283       .  A
O303        H320   0.990       .  S
O303        H335   0.987       .  S
O304        H321   0.990       .  S
O305        H325   0.990       .  S
O305        H334   0.990       .  S
O306        C307   1.285       .  A
C307       C1278   1.480       .  S
O308        H327   0.990       .  S
O308        H331   0.990       .  S
O309        H323   0.990       .  S
O309        H330   0.990       .  S
O310        C314   1.286       .  A
O311        C314   1.280       .  A
O312        H322   0.990       .  S
O313        H326   0.990       .  S
C314       C1806   1.471       .  S
C337        N338   1.357       .  A
C337        N342   1.359       .  A
C337       C1297   1.481   1_455  S
N338        C339   1.358       .  A
C339        N340   1.354       .  A
C339       C1425   1.475       .  S
N340        C341   1.357       .  A
C341        N342   1.358       .  A
C341       C1265   1.488       .  S
C343        N344   1.360       .  A
C343        N348   1.356       .  A
C343       C1246   1.482       .  S
N344        C345   1.359       .  A
C345        N346   1.367   1_556  A
C345       C1233   1.515       .  S
N346        C347   1.362       .  A
C347        N348   1.357   1_554  A
C347       C1521   1.485       .  S
Zr349       O350   2.435       .  S
Zr349       O351   2.428       .  S
Zr349       O352   2.460       .  S
Zr349       O355   2.454       .  S
Zr349       O357   2.379       .  S
Zr349       O358   2.382       .  S
Zr349       O359   2.412       .  S
Zr349       O360   2.418       .  S
O350        H406   0.990       .  S
O350        H414   0.990       .  S
O351        C371   1.283       .  A
O352        C373   1.289       .  A
O353       Zr363   2.413       .  S
O353        C372   1.282       .  A
O354       Zr362   2.403       .  S
O354        C373   1.281       .  A
O355        C372   1.288       .  A
O356       Zr364   2.444       .  S
O356        C371   1.287       .  A
O357       Zr362   2.374       .  S
O357       Zr364   2.372       .  S
O358       Zr363   2.379       .  S
O358       Zr364   2.366       .  S
O358        H393   0.964       .  S
O359       Zr362   2.389       .  S
O359       Zr379   2.413       .  S
O359        H396   0.966       .  S
O360       Zr363   2.392       .  S
O360       Zr379   2.416       .  S
Zr361       O386   2.434       .  S
Zr361       O380   2.394       .  S
Zr361       O388   2.461       .  S
Zr361       O376   2.464       .  S
Zr361       O367   2.402       .  S
Zr361       O368   2.402       .  S
Zr361       O369   2.378       .  S
Zr361       O370   2.385       .  S
Zr362       O381   2.436       .  S
Zr362       O374   2.435       .  S
Zr362       O375   2.398       .  S
Zr362       O368   2.391       .  S
Zr362       O369   2.378       .  S
Zr363       O365   2.435       .  S
Zr363       O387   2.437       .  S
Zr363       O389   2.418       .  S
Zr363       O367   2.391       .  S
Zr363       O370   2.381       .  S
Zr364       O390   2.438       .  S
Zr364       O391   2.435       .  S
Zr364       O366   2.435       .  S
Zr364       O367   2.401       .  S
Zr364       O368   2.397       .  S
O365        H402   0.990       .  S
O366        H397   0.990       .  S
O366        H411   0.990       .  S
O368        H394   0.966       .  S
O369       Zr379   2.359       .  S
O370       Zr379   2.364       .  S
O370        H395   0.965       .  S
C371       C1198   1.485       .  S
C372       C1649   1.478       .  S
C373       C1182   1.487       .  S
O374        H410   0.990       .  S
O375        C377   1.278       .  A
O376        C377   1.291       .  A
C377       C1214   1.474       .  S
O378       Zr379   2.436       .  S
O378        H407   0.990       .  S
Zr379       O382   2.436       .  S
Zr379       O383   2.439       .  S
Zr379       O384   2.481       .  S
O380        C385   1.274       .  A
O381        H398   0.990       .  S
O381        H413   0.990       .  S
O382        H399   0.990       .  S
O383        H403   0.990       .  S
O383        H412   0.990       .  S
O384        C385   1.294       .  A
C385       C1713   1.501       .  S
O386        H405   0.990       .  S
O386        H409   0.990       .  S
O387        H401   0.990       .  S
O387        H408   0.990       .  S
O388        C392   1.290       .  A
O389        C392   1.283       .  A
O390        H400   0.990       .  S
O391        H404   0.990       .  S
C392       C1249   1.484       .  S
C415        N416   1.355       .  A
C415        N420   1.356       .  A
C415       C1166   1.469   1_545  S
N416        C417   1.356       .  A
C417        N418   1.366       .  A
C417       C1217   1.503       .  S
N418        C419   1.361       .  A
C419        N420   1.357       .  A
C419       C1150   1.493       .  S
Zr421       O422   2.436       .  S
Zr421       O423   2.424       .  S
Zr421       O424   2.433       .  S
Zr421       O427   2.428       .  S
Zr421       O429   2.369       .  S
Zr421       O430   2.378       .  S
Zr421       O431   2.404       .  S
Zr421       O432   2.403       .  S
O422        H478   0.990       .  S
O422        H486   0.990       .  S
O423        C443   1.285       .  A
O424        C445   1.286       .  A
O425       Zr435   2.430       .  S
O425        C444   1.284       .  A
O426       Zr434   2.405       .  S
O426        C445   1.278       .  A
O427        C444   1.284       .  A
O428       Zr436   2.446       .  S
O428        C443   1.286       .  A
O429       Zr434   2.374       .  S
O429       Zr436   2.368       .  S
O430       Zr435   2.375       .  S
O430       Zr436   2.369       .  S
O430        H465   0.966       .  S
O431       Zr434   2.386       .  S
O431       Zr451   2.403       .  S
O431        H468   0.966       .  S
O432       Zr435   2.391       .  S
O432       Zr451   2.403       .  S
Zr433       O458   2.441       .  S
Zr433       O452   2.420       .  S
Zr433       O460   2.440       .  S
Zr433       O448   2.455       .  S
Zr433       O439   2.406       .  S
Zr433       O440   2.401       .  S
Zr433       O441   2.383       .  S
Zr433       O442   2.387       .  S
Zr434       O453   2.436       .  S
Zr434       O446   2.435       .  S
Zr434       O447   2.392       .  S
Zr434       O440   2.387       .  S
Zr434       O441   2.381       .  S
Zr435       O437   2.434       .  S
Zr435       O459   2.437       .  S
Zr435       O461   2.418       .  S
Zr435       O439   2.392       .  S
Zr435       O442   2.388       .  S
Zr436       O462   2.435       .  S
Zr436       O463   2.435       .  S
Zr436       O438   2.436       .  S
Zr436       O439   2.402       .  S
Zr436       O440   2.394       .  S
O437        H474   0.990       .  S
O438        H469   0.990       .  S
O438        H483   0.990       .  S
O440        H466   0.966       .  S
O441       Zr451   2.372       .  S
O442       Zr451   2.369       .  S
O442        H467   0.965       .  S
C443       C1134   1.490       .  S
C444       C1985   1.468       .  S
C445       C1665   1.478       .  S
O446        H482   0.990       .  S
O447        C449   1.279       .  A
O448        C449   1.287       .  A
C449       C1118   1.490       .  S
O450       Zr451   2.435       .  S
O450        H479   0.990       .  S
Zr451       O454   2.437       .  S
Zr451       O455   2.438       .  S
Zr451       O456   2.447       .  S
O452        C457   1.283       .  A
O453        H470   0.990       .  S
O453        H485   0.990       .  S
O454        H471   0.990       .  S
O455        H475   0.990       .  S
O455        H484   0.990       .  S
O456        C457   1.286       .  A
C457       C1601   1.479       .  S
O458        H477   0.990       .  S
O458        H481   0.990       .  S
O459        H473   0.990       .  S
O459        H480   0.990       .  S
O460        C464   1.286       .  A
O461        C464   1.283       .  A
O462        H472   0.990       .  S
O463        H476   0.990       .  S
C464       C1169   1.472       .  S
C487        N488   1.361       .  A
C487        N492   1.362       .  A
C487       C1137   1.488       .  S
N488        C489   1.363       .  A
C489        N490   1.356       .  A
C489       C1086   1.496       .  S
N490        C491   1.356       .  A
C491        N492   1.358       .  A
C491       C1102   1.478   1_455  S
C493        N494   1.361       .  A
C493        N498   1.360       .  A
C493       C1070   1.493   1_455  S
N494        C495   1.356       .  A
C495        N496   1.362       .  A
C495       C1054   1.499       .  S
N496        C497   1.362       .  A
C497        N498   1.360       .  A
C497       C1201   1.488       .  S
Zr499       O500   2.436       .  S
Zr499       O501   2.415       .  S
Zr499       O502   2.457       .  S
Zr499       O505   2.455       .  S
Zr499       O507   2.387       .  S
Zr499       O508   2.384       .  S
Zr499       O509   2.410       .  S
Zr499       O510   2.408       .  S
O500        H556   0.990       .  S
O500        H564   0.990       .  S
O501        C521   1.281       .  A
O502        C523   1.288       .  A
O503       Zr513   2.398       .  S
O503        C522   1.280       .  A
O504       Zr512   2.419       .  S
O504        C523   1.282       .  A
O505        C522   1.288       .  A
O506       Zr514   2.424       .  S
O506        C521   1.282       .  A
O507       Zr512   2.382       .  S
O507       Zr514   2.375       .  S
O508       Zr513   2.380       .  S
O508       Zr514   2.370       .  S
O508        H543   0.965       .  S
O509       Zr512   2.395       .  S
O509       Zr529   2.408       .  S
O509        H546   0.966       .  S
O510       Zr513   2.388       .  S
O510       Zr529   2.404       .  S
Zr511       O536   2.437       .  S
Zr511       O530   2.408       .  S
Zr511       O538   2.440       .  S
Zr511       O526   2.431       .  S
Zr511       O517   2.393       .  S
Zr511       O518   2.406       .  S
Zr511       O519   2.377       .  S
Zr511       O520   2.381       .  S
Zr512       O531   2.435       .  S
Zr512       O524   2.436       .  S
Zr512       O525   2.420       .  S
Zr512       O518   2.395       .  S
Zr512       O519   2.378       .  S
Zr513       O515   2.436       .  S
Zr513       O537   2.437       .  S
Zr513       O539   2.407       .  S
Zr513       O517   2.386       .  S
Zr513       O520   2.374       .  S
Zr514       O540   2.438       .  S
Zr514       O541   2.435       .  S
Zr514       O516   2.437       .  S
Zr514       O517   2.393       .  S
Zr514       O518   2.397       .  S
O515        H552   0.990       .  S
O516        H547   0.990       .  S
O516        H561   0.990       .  S
O518        H544   0.966       .  S
O519       Zr529   2.364       .  S
O520       Zr529   2.375       .  S
O520        H545   0.966       .  S
C521       C1038   1.465       .  S
C522       C1697   1.484       .  S
C523       C1937   1.478       .  S
O524        H560   0.990       .  S
O525        C527   1.282       .  A
O526        C527   1.284       .  A
C527       C1073   1.464       .  S
O528       Zr529   2.436       .  S
O528        H557   0.990       .  S
Zr529       O532   2.436       .  S
Zr529       O533   2.436       .  S
Zr529       O534   2.448       .  S
O530        C535   1.281       .  A
O531        H548   0.990       .  S
O531        H563   0.990       .  S
O532        H549   0.990       .  S
O533        H553   0.990       .  S
O533        H562   0.989       .  S
O534        C535   1.286       .  A
C535       C1761   1.480       .  S
O536        H555   0.990       .  S
O536        H559   0.990       .  S
O537        H551   0.990       .  S
O537        H558   0.990       .  S
O538        C542   1.285       .  A
O539        C542   1.280       .  A
O540        H550   0.990       .  S
O541        H554   0.990       .  S
C542       C1022   1.468       .  S
C565        N566   1.352       .  A
C565        N570   1.356       .  A
C565       C1041   1.465       .  S
N566        C567   1.356       .  A
C567        N568   1.355       .  A
C567       C1009   1.484   1_545  S
N568        C569   1.359       .  A
C569        N570   1.354       .  A
C569        C990   1.492       .  S
Zr571       O572   2.436       .  S
Zr571       O573   2.430       .  S
Zr571       O574   2.439       .  S
Zr571       O577   2.463       .  S
Zr571       O579   2.381       .  S
Zr571       O580   2.374       .  S
Zr571       O581   2.414       .  S
Zr571       O582   2.408       .  S
O572        H628   0.990       .  S
O572        H636   0.990       .  S
O573        C593   1.283       .  A
O574        C595   1.285       .  A
O575       Zr585   2.418       .  S
O575        C594   1.281       .  A
O576       Zr584   2.398       .  S
O576        C595   1.281       .  A
O577        C594   1.289       .  A
O578       Zr586   2.435       .  S
O578        C593   1.285       .  A
O579       Zr584   2.379       .  S
O579       Zr586   2.367       .  S
O580       Zr585   2.381       .  S
O580       Zr586   2.363       .  S
O580        H615   0.964       .  S
O581       Zr584   2.395       .  S
O581       Zr601   2.403       .  S
O581        H618   0.965       .  S
O582       Zr585   2.388       .  S
O582       Zr601   2.416       .  S
Zr583       O608   2.438       .  S
Zr583       O602   2.410       .  S
Zr583       O610   2.425       .  S
Zr583       O598   2.439       .  S
Zr583       O589   2.405       .  S
Zr583       O590   2.401       .  S
Zr583       O591   2.377       .  S
Zr583       O592   2.385       .  S
Zr584       O603   2.437       .  S
Zr584       O596   2.439       .  S
Zr584       O597   2.415       .  S
Zr584       O590   2.390       .  S
Zr584       O591   2.375       .  S
Zr585       O587   2.436       .  S
Zr585       O609   2.437       .  S
Zr585       O611   2.418       .  S
Zr585       O589   2.398       .  S
Zr585       O592   2.381       .  S
Zr586       O612   2.436       .  S
Zr586       O613   2.435       .  S
Zr586       O588   2.436       .  S
Zr586       O589   2.401       .  S
Zr586       O590   2.397       .  S
O587        H624   0.990       .  S
O588        H619   0.990       .  S
O588        H633   0.990       .  S
O590        H616   0.965       .  S
O591       Zr601   2.362       .  S
O592       Zr601   2.371       .  S
O592        H617   0.957       .  S
C593       C1614   1.483       .  S
C594        C974   1.479       .  S
C595       C1006   1.482       .  S
O596        H632   0.990       .  S
O597        C599   1.281       .  A
O598        C599   1.284       .  A
C599       C1905   1.467       .  S
O600       Zr601   2.435       .  S
O600        H629   0.990       .  S
Zr601       O604   2.437       .  S
Zr601       O605   2.437       .  S
Zr601       O606   2.456       .  S
O602        C607   1.279       .  A
O603        H620   0.990       .  S
O603        H635   0.990       .  S
O604        H621   0.990       .  S
O605        H625   0.990       .  S
O605        H634   0.990       .  S
O606        C607   1.288       .  A
C607       C1105   1.481       .  S
O608        H627   0.990       .  S
O608        H631   0.990       .  S
O609        H623   0.990       .  S
O609        H630   0.990       .  S
O610        C614   1.284       .  A
O611        C614   1.281       .  A
O612        H622   0.990       .  S
O613        H626   0.990       .  S
C614       C1745   1.477       .  S
C637        N638   1.353       .  A
C637        N642   1.355       .  A
C637       C1121   1.468       .  S
N638        C639   1.357   1_556  A
C639        N640   1.363       .  A
C639       C1409   1.488       .  S
N640        C641   1.363   1_554  A
C641        N642   1.355       .  A
C641        C961   1.500       .  S
C643        N644   1.359       .  A
C643        N648   1.355       .  A
C643       C1361   1.486       .  S
N644        C645   1.360   1_554  A
C645        N646   1.360       .  A
C645       C1025   1.482       .  S
N646        C647   1.355       .  A
C647        N648   1.358   1_556  A
C647        C942   1.499       .  S
C649        N650   1.350       .  A
C649        N654   1.356       .  A
C649       C1281   1.475       .  S
N650        C651   1.352   1_554  A
C651        N652   1.368       .  A
C651        C977   1.499       .  S
N652        C653   1.366   1_556  A
C653        N654   1.362       .  A
C653        C929   1.511   1_554  S
C655        N656   1.360       .  A
C655        N660   1.359       .  A
C655       C1342   1.480       .  S
N656        C657   1.359       .  A
C657        N658   1.364       .  A
C657        C910   1.505       .  S
N658        C659   1.361       .  A
C659        N660   1.361       .  A
C659       C1486   1.502       .  S
C661        N662   1.360       .  A
C661        N666   1.358       .  A
C661       C1390   1.489       .  S
N662        C663   1.362       .  A
C663        N664   1.361       .  A
C663        C894   1.496       .  S
N664        C665   1.361       .  A
C665        N666   1.357       .  A
C665       C1505   1.486       .  S
C667        N668   1.360       .  A
C667        N672   1.357       .  A
C667       C1185   1.504       .  S
N668        C669   1.362       .  A
C669        N670   1.364       .  A
C669       C1473   1.490       .  S
N670        C671   1.363       .  A
C671        N672   1.360       .  A
C671        C881   1.499       .  S
N673        C678   1.350       .  A
N673        C677   1.352       .  A
N673        H705   1.037       .  S
N674        C681   1.353   1_545  A
N674        C682   1.350       .  A
N675        C680   1.357       .  A
N675        C679   1.355       .  A
N675        H706   1.037       .  S
N676        C683   1.352       .  A
N676        C684   1.351       .  A
C677        C685   1.387       .  A
C677        C693   1.413       .  A
C678        C694   1.411   1_455  A
C678        C686   1.387       .  A
C679        C687   1.388       .  A
C679        C696   1.423       .  A
C680        C695   1.422   1_455  A
C680        C688   1.386       .  A
C681        C693   1.413       .  A
C681        C689   1.384   1_565  A
C682        C696   1.415       .  A
C682        C690   1.387       .  A
C683        C691   1.385       .  A
C683        C694   1.412   1_545  A
C684        C692   1.388       .  A
C684        C695   1.417       .  A
C685        C686   1.376       .  A
C685        H697   1.082       .  S
C686        H698   1.082       .  S
C687        C688   1.380       .  A
C687        H699   1.082       .  S
C688        H700   1.082       .  S
C689        C690   1.377       .  A
C689        H701   1.082   1_545  S
C690        H702   1.082       .  S
C691        C692   1.373       .  A
C691        H703   1.082   1_545  S
C692        H704   1.082       .  S
C693       C2017   1.492       .  S
C694       C1921   1.485       .  S
C695       C1969   1.499       .  S
C696        C878   1.494       .  S
N707        C712   1.353   1_554  A
N707        C711   1.355       .  A
N707        H739   1.039   1_565  S
N708        C715   1.355       .  A
N708        C716   1.352       .  A
N709        C714   1.357   1_554  A
N709        C713   1.355       .  A
N709        H740   1.036       .  S
N710        C717   1.353       .  A
N710        C718   1.355       .  A
C711        C719   1.387       .  A
C711        C727   1.416       .  A
C712        C728   1.415       .  A
C712        C720   1.387       .  A
C713        C721   1.387       .  A
C713        C730   1.421       .  A
C714        C729   1.421       .  A
C714        C722   1.386   1_556  A
C715        C727   1.416   1_545  A
C715        C723   1.385       .  A
C716        C730   1.418       .  A
C716        C724   1.388       .  A
C717        C725   1.387       .  A
C717        C728   1.418   1_545  A
C718        C726   1.386       .  A
C718        C729   1.419       .  A
C719        C720   1.377   1_554  A
C719        H731   1.082       .  S
C720        H732   1.082       .  S
C721        C722   1.378       .  A
C721        H733   1.082       .  S
C722        H734   1.082   1_554  S
C723        C724   1.374       .  A
C723        H735   1.082       .  S
C724        H736   1.082       .  S
C725        C726   1.373       .  A
C725        H737   1.082       .  S
C726        H738   1.082       .  S
C727       C1873   1.501       .  S
C728       C1633   1.492       .  S
C729       C1729   1.503       .  S
C730        C913   1.494       .  S
N741        C746   1.353       .  A
N741        C745   1.353       .  A
N741        H773   1.037       .  S
N742        C749   1.352       .  A
N742        C750   1.351   1_556  A
N743        C748   1.354       .  A
N743        C747   1.355       .  A
N743        H774   1.040       .  S
N744        C751   1.354       .  A
N744        C752   1.352   1_556  A
C745        C753   1.387       .  A
C745        C761   1.415   1_455  A
C746        C762   1.416       .  A
C746        C754   1.388       .  A
C747        C755   1.385       .  A
C747        C764   1.415   1_455  A
C748        C763   1.418       .  A
C748        C756   1.388       .  A
C749        C761   1.414       .  A
C749        C757   1.386       .  A
C750        C764   1.413       .  A
C750        C758   1.386       .  A
C751        C759   1.385       .  A
C751        C762   1.416       .  A
C752        C760   1.387       .  A
C752        C763   1.419       .  A
C753        C754   1.372       .  A
C753        H765   1.082       .  S
C754        H766   1.082       .  S
C755        C756   1.376       .  A
C755        H767   1.082       .  S
C756        H768   1.082       .  S
C757        C758   1.374   1_556  A
C757        H769   1.082       .  S
C758        H770   1.082       .  S
C759        C760   1.379   1_556  A
C759        H771   1.082       .  S
C760        H772   1.082       .  S
C761       C1777   1.492       .  S
C762       C1678   1.497       .  S
C763        C897   1.499       .  S
C764       C1822   1.492       .  S
N775        C780   1.352   1_556  A
N775        C779   1.353   1_556  A
N775        H807   1.035       .  S
N776        C783   1.353       .  A
N776        C784   1.350       .  A
N777        C782   1.356       .  A
N777        C781   1.357       .  A
N777        H808   1.033       .  S
N778        C785   1.355   1_554  A
N778        C786   1.353   1_554  A
C779        C787   1.387       .  A
C779        C795   1.415   1_554  A
C780        C796   1.416       .  A
C780        C788   1.388       .  A
C781        C789   1.387   1_556  A
C781        C798   1.424       .  A
C782        C797   1.426       .  A
C782        C790   1.388   1_556  A
C783        C795   1.413       .  A
C783        C791   1.385       .  A
C784        C798   1.417       .  A
C784        C792   1.388       .  A
C785        C793   1.384       .  A
C785        C796   1.418   1_556  A
C786        C794   1.388       .  A
C786        C797   1.422       .  A
C787        C788   1.371       .  A
C787        H799   1.082       .  S
C788        H800   1.082       .  S
C789        C790   1.380       .  A
C789        H801   1.082       .  S
C790        H802   1.082       .  S
C791        C792   1.373       .  A
C791        H803   1.082       .  S
C792        H804   1.082       .  S
C793        C794   1.376       .  A
C793        H805   1.082       .  S
C794        H806   1.082       .  S
C795        C926   1.492       .  S
C796        C958   1.494       .  S
C797       C1230   1.499       .  S
C798        C945   1.493       .  S
N809        C814   1.352       .  A
N809        C813   1.352       .  A
N809        H841   1.038       .  S
N810        C817   1.352       .  A
N810        C818   1.352       .  A
N811        C816   1.355       .  A
N811        C815   1.354       .  A
N811        H842   1.038       .  S
N812        C819   1.353       .  A
N812        C820   1.351       .  A
C813        C821   1.387       .  A
C813        C829   1.413       .  A
C814        C830   1.414       .  A
C814        C822   1.387       .  A
C815        C823   1.386       .  A
C815        C832   1.417       .  A
C816        C831   1.418       .  A
C816        C824   1.387       .  A
C817        C829   1.414       .  A
C817        C825   1.386       .  A
C818        C832   1.415       .  A
C818        C826   1.387       .  A
C819        C827   1.385       .  A
C819        C830   1.413       .  A
C820        C828   1.388       .  A
C820        C831   1.416       .  A
C821        C822   1.377       .  A
C821        H833   1.082       .  S
C822        H834   1.082       .  S
C823        C824   1.380       .  A
C823        H835   1.082   1_455  S
C824        H836   1.082   1_455  S
C825        C826   1.373       .  A
C825        H837   1.082       .  S
C826        H838   1.082       .  S
C827        C828   1.373       .  A
C827        H839   1.082       .  S
C828        H840   1.082       .  S
C829       C1262   1.490       .  S
C830       C1089   1.492       .  S
C831       C1057   1.495       .  S
C832       C1553   1.494       .  S
N843        C848   1.352       .  A
N843        C847   1.351       .  A
N843        H875   1.038       .  S
N844        C851   1.351       .  A
N844        C852   1.351       .  A
N845        C850   1.354       .  A
N845        C849   1.355       .  A
N845        H876   1.036       .  S
N846        C853   1.354       .  A
N846        C854   1.351       .  A
C847        C855   1.387       .  A
C847        C863   1.411       .  A
C848        C864   1.412       .  A
C848        C856   1.387       .  A
C849        C857   1.387       .  A
C849        C866   1.418       .  A
C850        C865   1.420       .  A
C850        C858   1.388       .  A
C851        C863   1.411       .  A
C851        C859   1.386       .  A
C852        C866   1.414       .  A
C852        C860   1.387       .  A
C853        C861   1.384       .  A
C853        C864   1.414       .  A
C854        C862   1.387       .  A
C854        C865   1.417       .  A
C855        C856   1.375       .  A
C855        H867   1.082       .  S
C856        H868   1.082       .  S
C857        C858   1.378       .  A
C857        H869   1.082       .  S
C858        H870   1.082       .  S
C859        C860   1.374       .  A
C859        H871   1.082       .  S
C860        H872   1.082       .  S
C861        C862   1.375       .  A
C861        H873   1.082       .  S
C862        H874   1.082       .  S
C863        C993   1.483       .  S
C864       C1153   1.494       .  S
C865       C1441   1.492       .  S
C866       C1313   1.492       .  S
C877        C878   1.402       .  A
C877        C882   1.412       .  A
C877        H884   1.083       .  S
C878        C879   1.415       .  A
C879        C880   1.408       .  A
C879        C886   1.522       .  S
C880        C881   1.409       .  A
C880        H885   1.080       .  S
C881        C882   1.423       .  A
C882        C883   1.517       .  S
C883        F887   1.385       .  S
C883        F888   1.381       .  S
C883        F889   1.383       .  S
C886        F890   1.381       .  S
C886        F891   1.383       .  S
C886        F892   1.385       .  S
C893        C894   1.407       .  A
C893        C898   1.407       .  A
C893        H900   1.081       .  S
C894        C895   1.424       .  A
C895        C896   1.411       .  A
C895        C902   1.519       .  S
C896        C897   1.403       .  A
C896        H901   1.083       .  S
C897        C898   1.419       .  A
C898        C899   1.521       .  S
C899        F903   1.385       .  S
C899        F904   1.381       .  S
C899        F905   1.383       .  S
C902        F906   1.381       .  S
C902        F907   1.383       .  S
C902        F908   1.385       .  S
C909        C910   1.409       .  A
C909        C914   1.405       .  A
C909        H916   1.077       .  S
C910        C911   1.429       .  A
C911        C912   1.414       .  A
C911        C918   1.519       .  S
C912        C913   1.401       .  A
C912        H917   1.083       .  S
C913        C914   1.412       .  A
C914        C915   1.519       .  S
C915        F919   1.385       .  S
C915        F920   1.381       .  S
C915        F921   1.383       .  S
C918        F922   1.382       .  S
C918        F923   1.384       .  S
C918        F924   1.385       .  S
C925        C926   1.400       .  A
C925        C930   1.413       .  A
C925        H932   1.083       .  S
C926        C927   1.410   1_556  A
C927        C928   1.407       .  A
C927        C934   1.522       .  S
C928        C929   1.416   1_554  A
C928        H933   1.079       .  S
C929        C930   1.430       .  A
C930        C931   1.519       .  S
C931        F935   1.385       .  S
C931        F936   1.383       .  S
C931        F937   1.383       .  S
C934        F938   1.382       .  S
C934        F939   1.383       .  S
C934        F940   1.384       .  S
C941        C942   1.409   1_554  A
C941        C946   1.403       .  A
C941        H948   1.082       .  S
C942        C943   1.429       .  A
C943        C944   1.413       .  A
C943        C950   1.522       .  S
C944        C945   1.401       .  A
C944        H949   1.083       .  S
C945        C946   1.413   1_556  A
C946        C947   1.519       .  S
C947        F951   1.385       .  S
C947        F952   1.382       .  S
C947        F953   1.382       .  S
C950        F954   1.384       .  S
C950        F955   1.383       .  S
C950        F956   1.385       .  S
C957        C958   1.400   1_556  A
C957        C962   1.408       .  A
C957        H964   1.083       .  S
C958        C959   1.414       .  A
C959        C960   1.411       .  A
C959        C966   1.518       .  S
C960        C961   1.411   1_554  A
C960        H965   1.082       .  S
C961        C962   1.429       .  A
C962        C963   1.523       .  S
C963        F967   1.385       .  S
C963        F968   1.384       .  S
C963        F969   1.381       .  S
C966        F970   1.385       .  S
C966        F971   1.383       .  S
C966        F972   1.382       .  S
C973        C974   1.399       .  A
C973        C978   1.411       .  A
C973        H980   1.083       .  S
C974        C975   1.414       .  A
C975        C976   1.409       .  A
C975        C982   1.516       .  S
C976        C977   1.406       .  A
C976        H981   1.082       .  S
C977        C978   1.432       .  A
C978        C979   1.524       .  S
C979        F983   1.384       .  S
C979        F984   1.384       .  S
C979        F985   1.384       .  S
C982        F986   1.381       .  S
C982        F987   1.383       .  S
C982        F988   1.384       .  S
C989        C990   1.407       .  A
C989        C994   1.400       .  A
C989        H996   1.081   1_545  S
C990        C991   1.429       .  A
C991        C992   1.409       .  A
C991        C998   1.522       .  S
C992        C993   1.399       .  A
C992        H997   1.083       .  S
C993        C994   1.410       .  A
C994        C995   1.519   1_545  S
C995        F999   1.385       .  S
C995       F1000   1.383       .  S
C995       F1001   1.380       .  S
C998       F1002   1.384       .  S
C998       F1003   1.383       .  S
C998       F1004   1.385       .  S
C1005      C1006   1.406       .  A
C1005      C1010   1.400       .  A
C1005      H1012   1.083       .  S
C1006      C1007   1.416       .  A
C1007      C1008   1.406       .  A
C1007      C1014   1.519       .  S
C1008      C1009   1.408       .  A
C1008      H1013   1.082       .  S
C1009      C1010   1.421       .  A
C1010      C1011   1.523       .  S
C1011      F1015   1.385       .  S
C1011      F1016   1.384       .  S
C1011      F1017   1.381       .  S
C1014      F1018   1.383       .  S
C1014      F1019   1.380       .  S
C1014      F1020   1.385       .  S
C1021      C1022   1.400       .  A
C1021      C1026   1.406       .  A
C1021      H1028   1.083       .  S
C1022      C1023   1.411       .  A
C1023      C1024   1.406       .  A
C1023      C1030   1.517       .  S
C1024      C1025   1.407       .  A
C1024      H1029   1.083       .  S
C1025      C1026   1.421       .  A
C1026      C1027   1.520       .  S
C1027      F1031   1.385       .  S
C1027      F1032   1.384       .  S
C1027      F1033   1.382       .  S
C1030      F1034   1.383       .  S
C1030      F1035   1.383       .  S
C1030      F1036   1.384       .  S
C1037      C1038   1.400       .  A
C1037      C1042   1.403       .  A
C1037      H1044   1.084       .  S
C1038      C1039   1.415       .  A
C1039      C1040   1.401       .  A
C1039      C1046   1.516       .  S
C1040      C1041   1.399       .  A
C1040      H1045   1.084       .  S
C1041      C1042   1.417       .  A
C1042      C1043   1.519       .  S
C1043      F1047   1.385       .  S
C1043      F1048   1.383       .  S
C1043      F1049   1.383       .  S
C1046      F1050   1.378       .  S
C1046      F1051   1.384       .  S
C1046      F1052   1.385       .  S
C1053      C1054   1.409       .  A
C1053      C1058   1.410       .  A
C1053      H1060   1.083       .  S
C1054      C1055   1.428   1_455  A
C1055      C1056   1.408   1_655  A
C1055      C1062   1.519       .  S
C1056      C1057   1.399       .  A
C1056      H1061   1.083   1_455  S
C1057      C1058   1.415       .  A
C1058      C1059   1.518       .  S
C1059      F1063   1.384       .  S
C1059      F1064   1.383       .  S
C1059      F1065   1.381       .  S
C1062      F1066   1.384       .  S
C1062      F1067   1.382       .  S
C1062      F1068   1.385       .  S
C1069      C1070   1.407       .  A
C1069      C1074   1.400       .  A
C1069      H1076   1.080       .  S
C1070      C1071   1.424       .  A
C1071      C1072   1.410       .  A
C1071      C1078   1.518       .  S
C1072      C1073   1.399       .  A
C1072      H1077   1.083       .  S
C1073      C1074   1.414       .  A
C1074      C1075   1.523       .  S
C1075      F1079   1.383       .  S
C1075      F1080   1.380       .  S
C1075      F1081   1.383       .  S
C1078      F1082   1.380   1_655  S
C1078      F1083   1.383   1_655  S
C1078      F1084   1.385       .  S
C1085      C1086   1.406       .  A
C1085      C1090   1.405       .  A
C1085      H1092   1.078       .  S
C1086      C1087   1.427       .  A
C1087      C1088   1.409       .  A
C1087      C1094   1.520   1_455  S
C1088      C1089   1.400       .  A
C1088      H1093   1.083   1_455  S
C1089      C1090   1.413       .  A
C1090      C1091   1.518       .  S
C1091      F1095   1.385       .  S
C1091      F1096   1.380       .  S
C1091      F1097   1.383       .  S
C1094      F1098   1.383       .  S
C1094      F1099   1.384   1_655  S
C1094      F1100   1.385       .  S
C1101      C1102   1.401       .  A
C1101      C1106   1.405       .  A
C1101      H1108   1.083       .  S
C1102      C1103   1.416       .  A
C1103      C1104   1.410       .  A
C1103      C1110   1.517       .  S
C1104      C1105   1.404       .  A
C1104      H1109   1.083       .  S
C1105      C1106   1.420       .  A
C1106      C1107   1.520       .  S
C1107      F1111   1.385       .  S
C1107      F1112   1.381       .  S
C1107      F1113   1.381       .  S
C1110      F1114   1.384   1_655  S
C1110      F1115   1.382   1_655  S
C1110      F1116   1.385       .  S
C1117      C1118   1.411       .  A
C1117      C1122   1.396       .  A
C1117      H1124   1.081       .  S
C1118      C1119   1.419       .  A
C1119      C1120   1.410       .  A
C1119      C1126   1.516       .  S
C1120      C1121   1.404       .  A
C1120      H1125   1.083       .  S
C1121      C1122   1.411       .  A
C1122      C1123   1.523       .  S
C1123      F1127   1.386       .  S
C1123      F1128   1.383       .  S
C1123      F1129   1.380       .  S
C1126      F1130   1.383       .  S
C1126      F1131   1.381       .  S
C1126      F1132   1.385       .  S
C1133      C1134   1.405       .  A
C1133      C1138   1.406       .  A
C1133      H1140   1.083       .  S
C1134      C1135   1.420       .  A
C1135      C1136   1.410       .  A
C1135      C1142   1.517       .  S
C1136      C1137   1.405       .  A
C1136      H1141   1.083       .  S
C1137      C1138   1.419       .  A
C1138      C1139   1.517       .  S
C1139      F1143   1.385       .  S
C1139      F1144   1.383       .  S
C1139      F1145   1.380       .  S
C1142      F1146   1.382       .  S
C1142      F1147   1.383       .  S
C1142      F1148   1.385       .  S
C1149      C1150   1.407       .  A
C1149      C1154   1.406       .  A
C1149      H1156   1.080   1_545  S
C1150      C1151   1.421       .  A
C1151      C1152   1.411       .  A
C1151      C1158   1.517       .  S
C1152      C1153   1.403       .  A
C1152      H1157   1.083       .  S
C1153      C1154   1.416       .  A
C1154      C1155   1.521   1_545  S
C1155      F1159   1.385       .  S
C1155      F1160   1.380       .  S
C1155      F1161   1.383       .  S
C1158      F1162   1.381       .  S
C1158      F1163   1.384       .  S
C1158      F1164   1.385       .  S
C1165      C1166   1.400       .  A
C1165      C1170   1.403       .  A
C1165      H1172   1.085       .  S
C1166      C1167   1.414       .  A
C1167      C1168   1.405       .  A
C1167      C1174   1.518       .  S
C1168      C1169   1.403       .  A
C1168      H1173   1.082       .  S
C1169      C1170   1.418       .  A
C1170      C1171   1.518       .  S
C1171      F1175   1.384       .  S
C1171      F1176   1.383       .  S
C1171      F1177   1.382       .  S
C1174      F1178   1.383       .  S
C1174      F1179   1.381       .  S
C1174      F1180   1.384       .  S
C1181      C1182   1.402       .  A
C1181      C1186   1.404       .  A
C1181      H1188   1.083       .  S
C1182      C1183   1.413       .  A
C1183      C1184   1.414       .  A
C1183      C1190   1.517       .  S
C1184      C1185   1.415       .  A
C1184      H1189   1.082       .  S
C1185      C1186   1.427       .  A
C1186      C1187   1.522       .  S
C1187      F1191   1.385       .  S
C1187      F1192   1.383       .  S
C1187      F1193   1.383       .  S
C1190      F1194   1.385       .  S
C1190      F1195   1.383       .  S
C1190      F1196   1.383       .  S
C1197      C1198   1.402       .  A
C1197      C1202   1.408       .  A
C1197      H1204   1.083       .  S
C1198      C1199   1.419       .  A
C1199      C1200   1.410       .  A
C1199      C1206   1.519       .  S
C1200      C1201   1.405       .  A
C1200      H1205   1.083       .  S
C1201      C1202   1.420       .  A
C1202      C1203   1.519       .  S
C1203      F1207   1.385       .  S
C1203      F1208   1.379       .  S
C1203      F1209   1.382       .  S
C1206      F1210   1.383       .  S
C1206      F1211   1.381       .  S
C1206      F1212   1.385       .  S
C1213      C1214   1.398       .  A
C1213      C1218   1.414       .  A
C1213      H1220   1.083       .  S
C1214      C1215   1.416       .  A
C1215      C1216   1.400       .  A
C1215      C1222   1.519       .  S
C1216      C1217   1.406       .  A
C1216      H1221   1.083       .  S
C1217      C1218   1.433       .  A
C1218      C1219   1.522       .  S
C1219      F1223   1.385       .  S
C1219      F1224   1.383       .  S
C1219      F1225   1.383       .  S
C1222      F1226   1.384       .  S
C1222      F1227   1.381       .  S
C1222      F1228   1.383       .  S
C1229      C1230   1.400       .  A
C1229      C1234   1.415       .  A
C1229      H1236   1.083       .  S
C1230      C1231   1.412   1_556  A
C1231      C1232   1.408       .  A
C1231      C1238   1.519       .  S
C1232      C1233   1.413   1_554  A
C1232      H1237   1.081       .  S
C1233      C1234   1.436       .  A
C1234      C1235   1.523       .  S
C1235      F1239   1.385       .  S
C1235      F1240   1.383       .  S
C1235      F1241   1.383       .  S
C1238      F1242   1.382       .  S
C1238      F1243   1.382       .  S
C1238      F1244   1.384       .  S
C1245      C1246   1.403       .  A
C1245      C1250   1.409       .  A
C1245      H1252   1.083       .  S
C1246      C1247   1.417       .  A
C1247      C1248   1.408       .  A
C1247      C1254   1.519       .  S
C1248      C1249   1.405       .  A
C1248      H1253   1.083       .  S
C1249      C1250   1.418       .  A
C1250      C1251   1.517       .  S
C1251      F1255   1.385       .  S
C1251      F1256   1.383       .  S
C1251      F1257   1.380       .  S
C1254      F1258   1.384       .  S
C1254      F1259   1.382       .  S
C1254      F1260   1.385       .  S
C1261      C1262   1.402       .  A
C1261      C1266   1.409       .  A
C1261      H1268   1.083   1_455  S
C1262      C1263   1.415       .  A
C1263      C1264   1.404       .  A
C1263      C1270   1.520       .  S
C1264      C1265   1.407       .  A
C1264      H1269   1.083       .  S
C1265      C1266   1.422       .  A
C1266      C1267   1.520   1_455  S
C1267      F1271   1.384       .  S
C1267      F1272   1.384       .  S
C1267      F1273   1.381       .  S
C1270      F1274   1.383       .  S
C1270      F1275   1.380       .  S
C1270      F1276   1.384       .  S
C1277      C1278   1.403       .  A
C1277      C1282   1.404       .  A
C1277      H1284   1.082       .  S
C1278      C1279   1.419       .  A
C1279      C1280   1.409       .  A
C1279      C1286   1.519       .  S
C1280      C1281   1.403       .  A
C1280      H1285   1.083       .  S
C1281      C1282   1.415       .  A
C1282      C1283   1.519       .  S
C1283      F1287   1.382       .  S
C1283      F1288   1.384       .  S
C1283      F1289   1.381       .  S
C1286      F1290   1.382       .  S
C1286      F1291   1.382       .  S
C1286      F1292   1.385       .  S
C1293      C1294   1.404       .  A
C1293      C1298   1.409       .  A
C1293      H1300   1.084       .  S
C1294      C1295   1.418       .  A
C1295      C1296   1.404       .  A
C1295      C1302   1.519       .  S
C1296      C1297   1.404       .  A
C1296      H1301   1.085   1_655  S
C1297      C1298   1.418       .  A
C1298      C1299   1.519       .  S
C1299      F1303   1.383       .  S
C1299      F1304   1.383       .  S
C1299      F1305   1.379       .  S
C1302      F1306   1.382       .  S
C1302      F1307   1.383       .  S
C1302      F1308   1.384       .  S
C1309      C1310   1.413       .  A
C1309      C1314   1.408   1_545  A
C1309      H1316   1.082   1_545  S
C1310      C1311   1.427       .  A
C1311      C1312   1.408       .  A
C1311      C1318   1.517       .  S
C1312      C1313   1.399       .  A
C1312      H1317   1.083       .  S
C1313      C1314   1.411   1_545  A
C1314      C1315   1.518       .  S
C1315      F1319   1.382       .  S
C1315      F1320   1.383       .  S
C1315      F1321   1.385       .  S
C1318      F1322   1.382       .  S
C1318      F1323   1.380       .  S
C1318      F1324   1.385       .  S
C1325      C1326   1.407       .  A
C1325      C1330   1.403       .  A
C1325      H1332   1.083       .  S
C1326      C1327   1.423       .  A
C1327      C1328   1.406       .  A
C1327      C1334   1.520       .  S
C1328      C1329   1.398       .  A
C1328      H1333   1.084       .  S
C1329      C1330   1.410       .  A
C1330      C1331   1.517       .  S
C1331      F1335   1.384       .  S
C1331      F1336   1.379       .  S
C1331      F1337   1.383       .  S
C1334      F1338   1.381       .  S
C1334      F1339   1.383       .  S
C1334      F1340   1.386       .  S
C1341      C1342   1.401       .  A
C1341      C1346   1.405       .  A
C1341      H1348   1.084       .  S
C1342      C1343   1.416       .  A
C1343      C1344   1.410       .  A
C1343      C1350   1.515       .  S
C1344      C1345   1.404       .  A
C1344      H1349   1.083       .  S
C1345      C1346   1.417       .  A
C1346      C1347   1.515       .  S
C1347      F1351   1.385       .  S
C1347      F1352   1.381       .  S
C1347      F1353   1.384       .  S
C1350      F1354   1.381       .  S
C1350      F1355   1.383       .  S
C1350      F1356   1.385       .  S
C1357      C1358   1.414       .  A
C1357      C1362   1.405       .  A
C1357      H1364   1.081       .  S
C1358      C1359   1.429       .  A
C1359      C1360   1.414       .  A
C1359      C1366   1.519       .  S
C1360      C1361   1.402       .  A
C1360      H1365   1.083       .  S
C1361      C1362   1.417       .  A
C1362      C1363   1.524       .  S
C1363      F1367   1.384       .  S
C1363      F1368   1.384       .  S
C1363      F1369   1.382       .  S
C1366      F1370   1.381       .  S
C1366      F1371   1.383       .  S
C1366      F1372   1.385       .  S
C1373      C1374   1.407       .  A
C1373      C1378   1.402       .  A
C1373      H1380   1.084       .  S
C1374      C1375   1.418       .  A
C1375      C1376   1.413       .  A
C1375      C1382   1.517       .  S
C1376      C1377   1.406       .  A
C1376      H1381   1.083       .  S
C1377      C1378   1.415       .  A
C1378      C1379   1.519       .  S
C1379      F1383   1.383       .  S
C1379      F1384   1.382       .  S
C1379      F1385   1.382       .  S
C1382      F1386   1.382       .  S
C1382      F1387   1.384       .  S
C1382      F1388   1.384       .  S
C1389      C1390   1.406       .  A
C1389      C1394   1.405       .  A
C1389      H1396   1.085       .  S
C1390      C1391   1.422       .  A
C1391      C1392   1.409       .  A
C1391      C1398   1.517       .  S
C1392      C1393   1.401       .  A
C1392      H1397   1.084       .  S
C1393      C1394   1.415       .  A
C1394      C1395   1.518       .  S
C1395      F1399   1.384       .  S
C1395      F1400   1.382       .  S
C1395      F1401   1.383       .  S
C1398      F1402   1.383       .  S
C1398      F1403   1.382       .  S
C1398      F1404   1.385       .  S
C1405      C1406   1.398       .  A
C1405      C1410   1.401       .  A
C1405      H1412   1.083       .  S
C1406      C1407   1.408       .  A
C1407      C1408   1.407       .  A
C1407      C1414   1.518       .  S
C1408      C1409   1.413       .  A
C1408      H1413   1.082       .  S
C1409      C1410   1.419       .  A
C1410      C1411   1.518       .  S
C1411      F1415   1.386       .  S
C1411      F1416   1.384       .  S
C1411      F1417   1.381       .  S
C1414      F1418   1.383       .  S
C1414      F1419   1.383       .  S
C1414      F1420   1.384       .  S
C1421      C1422   1.401       .  A
C1421      C1426   1.403       .  A
C1421      H1428   1.084       .  S
C1422      C1423   1.415       .  A
C1423      C1424   1.403       .  A
C1423      C1430   1.519       .  S
C1424      C1425   1.403       .  A
C1424      H1429   1.083       .  S
C1425      C1426   1.420       .  A
C1426      C1427   1.520       .  S
C1427      F1431   1.385       .  S
C1427      F1432   1.383       .  S
C1427      F1433   1.383       .  S
C1430      F1434   1.381       .  S
C1430      F1435   1.383       .  S
C1430      F1436   1.385       .  S
C1437      C1438   1.407       .  A
C1437      C1442   1.406   1_545  A
C1437      H1444   1.084   1_545  S
C1438      C1439   1.426       .  A
C1439      C1440   1.408       .  A
C1439      C1446   1.522       .  S
C1440      C1441   1.402       .  A
C1440      H1445   1.083       .  S
C1441      C1442   1.417   1_545  A
C1442      C1443   1.519       .  S
C1443      F1447   1.384       .  S
C1443      F1448   1.381       .  S
C1443      F1449   1.383       .  S
C1446      F1450   1.384       .  S
C1446      F1451   1.381       .  S
C1446      F1452   1.385       .  S
C1453      C1454   1.406       .  A
C1453      C1458   1.407       .  A
C1453      H1460   1.083       .  S
C1454      C1455   1.423       .  A
C1455      C1456   1.407       .  A
C1455      C1462   1.521       .  S
C1456      C1457   1.400       .  A
C1456      H1461   1.083       .  S
C1457      C1458   1.412       .  A
C1458      C1459   1.517       .  S
C1459      F1463   1.384       .  S
C1459      F1464   1.383       .  S
C1459      F1465   1.383       .  S
C1462      F1466   1.382   1_565  S
C1462      F1467   1.383   1_565  S
C1462      F1468   1.385       .  S
C1469      C1470   1.406       .  A
C1469      C1474   1.415       .  A
C1469      H1476   1.083       .  S
C1470      C1471   1.420       .  A
C1471      C1472   1.404       .  A
C1471      C1478   1.517       .  S
C1472      C1473   1.402       .  A
C1472      H1477   1.085       .  S
C1473      C1474   1.420       .  A
C1474      C1475   1.516       .  S
C1475      F1479   1.386       .  S
C1475      F1480   1.381       .  S
C1475      F1481   1.384       .  S
C1478      F1482   1.383       .  S
C1478      F1483   1.381       .  S
C1478      F1484   1.384       .  S
C1485      C1486   1.412       .  A
C1485      C1490   1.409       .  A
C1485      H1492   1.082       .  S
C1486      C1487   1.428       .  A
C1487      C1488   1.409       .  A
C1487      C1494   1.518       .  S
C1488      C1489   1.398       .  A
C1488      H1493   1.084       .  S
C1489      C1490   1.409       .  A
C1490      C1491   1.515       .  S
C1491      F1495   1.385       .  S
C1491      F1496   1.383       .  S
C1491      F1497   1.383       .  S
C1494      F1498   1.383       .  S
C1494      F1499   1.381       .  S
C1494      F1500   1.385       .  S
C1501      C1502   1.406       .  A
C1501      C1506   1.405       .  A
C1501      H1508   1.083       .  S
C1502      C1503   1.416       .  A
C1503      C1504   1.411       .  A
C1503      C1510   1.517       .  S
C1504      C1505   1.408       .  A
C1504      H1509   1.083       .  S
C1505      C1506   1.417       .  A
C1506      C1507   1.521       .  S
C1507      F1511   1.385       .  S
C1507      F1512   1.380       .  S
C1507      F1513   1.383       .  S
C1510      F1514   1.381       .  S
C1510      F1515   1.382       .  S
C1510      F1516   1.385       .  S
C1517      C1518   1.405       .  A
C1517      C1522   1.409       .  A
C1517      H1524   1.083       .  S
C1518      C1519   1.418       .  A
C1519      C1520   1.413       .  A
C1519      C1526   1.516       .  S
C1520      C1521   1.405       .  A
C1520      H1525   1.083       .  S
C1521      C1522   1.417       .  A
C1522      C1523   1.520       .  S
C1523      F1527   1.384       .  S
C1523      F1528   1.384       .  S
C1523      F1529   1.382       .  S
C1526      F1530   1.382       .  S
C1526      F1531   1.382       .  S
C1526      F1532   1.384       .  S
C1533      C1534   1.404       .  A
C1533      C1538   1.407       .  A
C1533      H1540   1.083       .  S
C1534      C1535   1.415       .  A
C1535      C1536   1.403       .  A
C1535      C1542   1.519       .  S
C1536      C1537   1.402       .  A
C1536      H1541   1.084       .  S
C1537      C1538   1.415       .  A
C1538      C1539   1.517       .  S
C1539      F1543   1.385       .  S
C1539      F1544   1.382       .  S
C1539      F1545   1.383       .  S
C1542      F1546   1.384       .  S
C1542      F1547   1.380       .  S
C1542      F1548   1.383       .  S
C1549      C1550   1.411       .  A
C1549      C1554   1.408   1_455  A
C1549      H1556   1.081   1_455  S
C1550      C1551   1.427       .  A
C1551      C1552   1.410       .  A
C1551      C1558   1.519       .  S
C1552      C1553   1.401       .  A
C1552      H1557   1.083       .  S
C1553      C1554   1.413   1_455  A
C1554      C1555   1.518       .  S
C1555      F1559   1.385       .  S
C1555      F1560   1.381       .  S
C1555      F1561   1.383       .  S
C1558      F1562   1.381       .  S
C1558      F1563   1.383       .  S
C1558      F1564   1.385       .  S
C1565      C1566   1.401       .  A
C1565      C1570   1.409       .  A
C1565      H1572   1.083   1_655  S
C1566      C1567   1.420       .  A
C1567      C1568   1.414       .  A
C1567      C1574   1.519       .  S
C1568      C1569   1.406       .  A
C1568      H1573   1.083       .  S
C1569      C1570   1.419       .  A
C1570      C1571   1.515       .  S
C1571      F1575   1.385       .  S
C1571      F1576   1.383       .  S
C1571      F1577   1.380       .  S
C1574      F1578   1.383       .  S
C1574      F1579   1.381       .  S
C1574      F1580   1.385       .  S
C1581      C1582   1.401       .  A
C1581      C1586   1.416       .  A
C1581      H1588   1.083       .  S
C1582      C1583   1.415       .  A
C1583      C1584   1.406       .  A
C1583      C1590   1.523       .  S
C1584      C1585   1.411       .  A
C1584      H1589   1.083       .  S
C1585      C1586   1.430       .  A
C1586      C1587   1.520       .  S
C1587      F1591   1.385       .  S
C1587      F1592   1.383       .  S
C1587      F1593   1.383       .  S
C1590      F1594   1.382       .  S
C1590      F1595   1.383       .  S
C1590      F1596   1.382       .  S
C1597      C1598   1.401       .  A
C1597      C1602   1.407       .  A
C1597      H1604   1.083       .  S
C1598      C1599   1.414       .  A
C1599      C1600   1.406       .  A
C1599      C1606   1.519       .  S
C1600      C1601   1.404       .  A
C1600      H1605   1.082       .  S
C1601      C1602   1.417       .  A
C1602      C1603   1.517       .  S
C1603      F1607   1.385       .  S
C1603      F1608   1.382       .  S
C1603      F1609   1.381       .  S
C1606      F1610   1.382       .  S
C1606      F1611   1.383       .  S
C1606      F1612   1.385       .  S
C1613      C1614   1.403       .  A
C1613      C1618   1.406       .  A
C1613      H1620   1.083       .  S
C1614      C1615   1.420       .  A
C1615      C1616   1.406       .  A
C1615      C1622   1.516       .  S
C1616      C1617   1.401       .  A
C1616      H1621   1.084       .  S
C1617      C1618   1.418       .  A
C1618      C1619   1.519       .  S
C1619      F1623   1.384       .  S
C1619      F1624   1.383       .  S
C1619      F1625   1.383       .  S
C1622      F1626   1.383       .  S
C1622      F1627   1.377       .  S
C1622      F1628   1.385       .  S
C1629      C1630   1.410       .  A
C1629      C1634   1.407       .  A
C1629      H1636   1.082       .  S
C1630      C1631   1.425       .  A
C1631      C1632   1.409       .  A
C1631      C1638   1.520       .  S
C1632      C1633   1.400       .  A
C1632      H1637   1.083       .  S
C1633      C1634   1.414       .  A
C1634      C1635   1.520       .  S
C1635      F1639   1.385       .  S
C1635      F1640   1.381       .  S
C1635      F1641   1.383       .  S
C1638      F1642   1.382       .  S
C1638      F1643   1.384       .  S
C1638      F1644   1.385       .  S
C1645      C1646   1.404       .  A
C1645      C1650   1.412       .  A
C1645      H1652   1.083       .  S
C1646      C1647   1.423       .  A
C1647      C1648   1.404       .  A
C1647      C1654   1.523       .  S
C1648      C1649   1.400       .  A
C1648      H1653   1.083       .  S
C1649      C1650   1.418       .  A
C1650      C1651   1.518       .  S
C1651      F1655   1.384       .  S
C1651      F1656   1.382       .  S
C1651      F1657   1.383       .  S
C1654      F1658   1.383       .  S
C1654      F1659   1.383       .  S
C1654      F1660   1.385       .  S
C1661      C1662   1.399       .  A
C1661      C1666   1.402       .  A
C1661      H1668   1.083       .  S
C1662      C1663   1.409       .  A
C1663      C1664   1.403       .  A
C1663      C1670   1.515       .  S
C1664      C1665   1.408       .  A
C1664      H1669   1.083       .  S
C1665      C1666   1.422       .  A
C1666      C1667   1.521       .  S
C1667      F1671   1.385       .  S
C1667      F1672   1.382       .  S
C1667      F1673   1.383       .  S
C1670      F1674   1.383       .  S
C1670      F1675   1.385       .  S
C1670      F1676   1.381       .  S
C1677      C1678   1.402       .  A
C1677      C1682   1.409       .  A
C1677      H1684   1.083       .  S
C1678      C1679   1.416       .  A
C1679      C1680   1.411       .  A
C1679      C1686   1.518       .  S
C1680      C1681   1.408       .  A
C1680      H1685   1.083       .  S
C1681      C1682   1.425       .  A
C1682      C1683   1.520       .  S
C1683      F1687   1.385       .  S
C1683      F1688   1.384       .  S
C1683      F1689   1.382       .  S
C1686      F1690   1.382       .  S
C1686      F1691   1.385       .  S
C1686      F1692   1.383       .  S
C1693      C1694   1.411       .  A
C1693      C1698   1.413       .  A
C1693      H1700   1.083       .  S
C1694      C1695   1.416       .  A
C1695      C1696   1.395       .  A
C1695      C1702   1.522       .  S
C1696      C1697   1.406       .  A
C1696      H1701   1.084       .  S
C1697      C1698   1.415       .  A
C1698      C1699   1.517       .  S
C1699      F1703   1.385       .  S
C1699      F1704   1.382       .  S
C1699      F1705   1.383       .  S
C1702      F1706   1.382       .  S
C1702      F1707   1.382       .  S
C1702      F1708   1.385       .  S
C1709      C1710   1.401       .  A
C1709      C1714   1.404       .  A
C1709      H1716   1.077       .  S
C1710      C1711   1.428       .  A
C1711      C1712   1.413       .  A
C1711      C1718   1.521       .  S
C1712      C1713   1.405       .  A
C1712      H1717   1.082       .  S
C1713      C1714   1.430       .  A
C1714      C1715   1.525       .  S
C1715      F1719   1.386       .  S
C1715      F1720   1.378       .  S
C1715      F1721   1.382       .  S
C1718      F1722   1.382       .  S
C1718      F1723   1.383       .  S
C1718      F1724   1.385       .  S
C1725      C1726   1.413       .  A
C1725      C1730   1.412       .  A
C1725      H1732   1.080       .  S
C1726      C1727   1.427       .  A
C1727      C1728   1.413       .  A
C1727      C1734   1.517       .  S
C1728      C1729   1.402       .  A
C1728      H1733   1.083       .  S
C1729      C1730   1.415       .  A
C1730      C1731   1.520       .  S
C1731      F1735   1.385       .  S
C1731      F1736   1.383       .  S
C1731      F1737   1.381       .  S
C1734      F1738   1.384       .  S
C1734      F1739   1.382       .  S
C1734      F1740   1.384       .  S
C1741      C1742   1.405       .  A
C1741      C1746   1.396       .  A
C1741      H1748   1.082       .  S
C1742      C1743   1.422       .  A
C1743      C1744   1.410       .  A
C1743      C1750   1.519       .  S
C1744      C1745   1.405       .  A
C1744      H1749   1.083       .  S
C1745      C1746   1.418       .  A
C1746      C1747   1.523       .  S
C1747      F1751   1.381       .  S
C1747      F1752   1.382       .  S
C1747      F1753   1.385       .  S
C1750      F1754   1.382       .  S
C1750      F1755   1.384       .  S
C1750      F1756   1.385       .  S
C1757      C1758   1.404       .  A
C1757      C1762   1.408       .  A
C1757      H1764   1.083       .  S
C1758      C1759   1.414       .  A
C1759      C1760   1.403       .  A
C1759      C1766   1.520       .  S
C1760      C1761   1.406       .  A
C1760      H1765   1.083       .  S
C1761      C1762   1.417       .  A
C1762      C1763   1.517       .  S
C1763      F1767   1.385       .  S
C1763      F1768   1.381       .  S
C1763      F1769   1.382       .  S
C1766      F1770   1.381       .  S
C1766      F1771   1.384       .  S
C1766      F1772   1.385       .  S
C1773      C1774   1.406       .  A
C1773      C1778   1.400       .  A
C1773      H1780   1.084       .  S
C1774      C1775   1.423       .  A
C1775      C1776   1.412       .  A
C1775      C1782   1.519       .  S
C1776      C1777   1.404       .  A
C1776      H1781   1.083       .  S
C1777      C1778   1.416       .  A
C1778      C1779   1.520       .  S
C1779      F1783   1.385       .  S
C1779      F1784   1.382   1_655  S
C1779      F1785   1.383       .  S
C1782      F1786   1.381       .  S
C1782      F1787   1.384       .  S
C1782      F1788   1.384       .  S
C1789      C1790   1.403       .  A
C1789      C1794   1.408       .  A
C1789      H1796   1.084       .  S
C1790      C1791   1.417       .  A
C1791      C1792   1.401       .  A
C1791      C1798   1.520       .  S
C1792      C1793   1.403       .  A
C1792      H1797   1.085       .  S
C1793      C1794   1.417       .  A
C1794      C1795   1.518       .  S
C1795      F1799   1.385       .  S
C1795      F1800   1.383       .  S
C1795      F1801   1.382       .  S
C1798      F1802   1.383       .  S
C1798      F1803   1.381       .  S
C1798      F1804   1.384       .  S
C1805      C1806   1.403       .  A
C1805      C1810   1.404       .  A
C1805      H1812   1.084       .  S
C1806      C1807   1.413       .  A
C1807      C1808   1.407       .  A
C1807      C1814   1.516       .  S
C1808      C1809   1.402       .  A
C1808      H1813   1.083       .  S
C1809      C1810   1.416       .  A
C1810      C1811   1.520       .  S
C1811      F1815   1.385       .  S
C1811      F1816   1.383       .  S
C1811      F1817   1.382       .  S
C1814      F1818   1.384       .  S
C1814      F1819   1.383       .  S
C1814      F1820   1.383       .  S
C1821      C1822   1.397       .  A
C1821      C1826   1.411       .  A
C1821      H1828   1.083       .  S
C1822      C1823   1.411       .  A
C1823      C1824   1.408       .  A
C1823      C1830   1.519       .  S
C1824      C1825   1.414       .  A
C1824      H1829   1.081       .  S
C1825      C1826   1.433       .  A
C1826      C1827   1.521       .  S
C1827      F1831   1.385       .  S
C1827      F1832   1.382       .  S
C1827      F1833   1.383       .  S
C1830      F1834   1.382       .  S
C1830      F1835   1.383       .  S
C1830      F1836   1.385       .  S
C1837      C1838   1.407       .  A
C1837      C1842   1.402       .  A
C1837      H1844   1.084       .  S
C1838      C1839   1.420       .  A
C1839      C1840   1.407       .  A
C1839      C1846   1.516       .  S
C1840      C1841   1.400       .  A
C1840      H1845   1.082       .  S
C1841      C1842   1.412       .  A
C1842      C1843   1.518       .  S
C1843      F1847   1.384       .  S
C1843      F1848   1.382       .  S
C1843      F1849   1.383       .  S
C1846      F1850   1.380       .  S
C1846      F1851   1.383       .  S
C1846      F1852   1.385       .  S
C1853      C1854   1.406       .  A
C1853      C1858   1.410       .  A
C1853      H1860   1.083       .  S
C1854      C1855   1.425       .  A
C1855      C1856   1.400       .  A
C1855      C1862   1.520       .  S
C1856      C1857   1.400       .  A
C1856      H1861   1.082       .  S
C1857      C1858   1.422       .  A
C1858      C1859   1.519       .  S
C1859      F1863   1.385       .  S
C1859      F1864   1.383       .  S
C1859      F1865   1.382       .  S
C1862      F1866   1.383       .  S
C1862      F1867   1.375       .  S
C1862      F1868   1.385       .  S
C1869      C1870   1.409       .  A
C1869      C1874   1.412       .  A
C1869      H1876   1.079       .  S
C1870      C1871   1.429       .  A
C1871      C1872   1.410       .  A
C1871      C1878   1.521       .  S
C1872      C1873   1.400       .  A
C1872      H1877   1.083       .  S
C1873      C1874   1.416       .  A
C1874      C1875   1.519       .  S
C1875      F1879   1.385       .  S
C1875      F1880   1.383       .  S
C1875      F1881   1.381       .  S
C1878      F1882   1.384       .  S
C1878      F1883   1.382       .  S
C1878      F1884   1.385       .  S
C1885      C1886   1.405       .  A
C1885      C1890   1.408       .  A
C1885      H1892   1.082       .  S
C1886      C1887   1.419       .  A
C1887      C1888   1.401       .  A
C1887      C1894   1.519       .  S
C1888      C1889   1.404       .  A
C1888      H1893   1.083       .  S
C1889      C1890   1.420       .  A
C1890      C1891   1.519       .  S
C1891      F1895   1.385       .  S
C1891      F1896   1.381       .  S
C1891      F1897   1.383       .  S
C1894      F1898   1.384       .  S
C1894      F1899   1.381       .  S
C1894      F1900   1.384       .  S
C1901      C1902   1.408       .  A
C1901      C1906   1.406       .  A
C1901      H1908   1.083       .  S
C1902      C1903   1.426       .  A
C1903      C1904   1.405       .  A
C1903      C1910   1.520       .  S
C1904      C1905   1.396       .  A
C1904      H1909   1.084       .  S
C1905      C1906   1.410       .  A
C1906      C1907   1.516       .  S
C1907      F1911   1.385       .  S
C1907      F1912   1.383       .  S
C1907      F1913   1.383       .  S
C1910      F1914   1.383       .  S
C1910      F1915   1.383       .  S
C1910      F1916   1.385       .  S
C1917      C1918   1.405       .  A
C1917      C1922   1.399       .  A
C1917      H1924   1.078       .  S
C1918      C1919   1.422       .  A
C1919      C1920   1.412       .  A
C1919      C1926   1.518       .  S
C1920      C1921   1.402       .  A
C1920      H1925   1.083       .  S
C1921      C1922   1.412       .  A
C1922      C1923   1.521       .  S
C1923      F1927   1.385       .  S
C1923      F1928   1.382   1_655  S
C1923      F1929   1.383       .  S
C1926      F1930   1.383       .  S
C1926      F1931   1.384       .  S
C1926      F1932   1.385       .  S
C1933      C1934   1.412       .  A
C1933      C1938   1.412       .  A
C1933      H1940   1.079       .  S
C1934      C1935   1.424       .  A
C1935      C1936   1.406       .  A
C1935      C1942   1.515       .  S
C1936      C1937   1.399       .  A
C1936      H1941   1.085       .  S
C1937      C1938   1.412       .  A
C1938      C1939   1.516       .  S
C1939      F1943   1.385       .  S
C1939      F1944   1.383       .  S
C1939      F1945   1.383       .  S
C1942      F1946   1.381       .  S
C1942      F1947   1.383       .  S
C1942      F1948   1.385       .  S
C1949      C1950   1.399       .  A
C1949      C1954   1.412       .  A
C1949      H1956   1.083       .  S
C1950      C1951   1.413       .  A
C1951      C1952   1.405       .  A
C1951      C1958   1.518       .  S
C1952      C1953   1.408       .  A
C1952      H1957   1.080       .  S
C1953      C1954   1.428       .  A
C1954      C1955   1.517       .  S
C1955      F1959   1.385       .  S
C1955      F1960   1.383       .  S
C1955      F1961   1.383       .  S
C1958      F1962   1.379       .  S
C1958      F1963   1.381       .  S
C1958      F1964   1.384       .  S
C1965      C1966   1.408       .  A
C1965      C1970   1.404       .  A
C1965      H1972   1.079       .  S
C1966      C1967   1.431       .  A
C1967      C1968   1.415       .  A
C1967      C1974   1.519       .  S
C1968      C1969   1.402       .  A
C1968      H1973   1.083       .  S
C1969      C1970   1.416       .  A
C1970      C1971   1.519       .  S
C1971      F1975   1.384       .  S
C1971      F1976   1.382       .  S
C1971      F1977   1.383       .  S
C1974      F1978   1.383       .  S
C1974      F1979   1.381       .  S
C1974      F1980   1.385       .  S
C1981      C1982   1.410       .  A
C1981      C1986   1.407       .  A
C1981      H1988   1.083       .  S
C1982      C1983   1.423       .  A
C1983      C1984   1.405       .  A
C1983      C1990   1.519       .  S
C1984      C1985   1.399       .  A
C1984      H1989   1.084       .  S
C1985      C1986   1.410       .  A
C1986      C1987   1.518       .  S
C1987      F1991   1.385       .  S
C1987      F1992   1.383       .  S
C1987      F1993   1.383       .  S
C1990      F1994   1.383       .  S
C1990      F1995   1.382       .  S
C1990      F1996   1.385       .  S
C1997      C1998   1.404       .  A
C1997      C2002   1.403       .  A
C1997      H2004   1.084       .  S
C1998      C1999   1.419       .  A
C1999      C2000   1.406       .  A
C1999      C2006   1.516       .  S
C2000      C2001   1.401       .  A
C2000      H2005   1.084       .  S
C2001      C2002   1.414       .  A
C2002      C2003   1.517       .  S
C2003      F2007   1.384       .  S
C2003      F2008   1.381       .  S
C2003      F2009   1.384       .  S
C2006      F2010   1.383       .  S
C2006      F2011   1.381       .  S
C2006      F2012   1.384       .  S
C2013      C2014   1.412       .  A
C2013      C2018   1.408       .  A
C2013      H2020   1.082       .  S
C2014      C2015   1.427       .  A
C2015      C2016   1.409       .  A
C2015      C2022   1.517       .  S
C2016      C2017   1.400       .  A
C2016      H2021   1.083       .  S
C2017      C2018   1.412       .  A
C2018      C2019   1.518       .  S
C2019      F2023   1.382       .  S
C2019      F2024   1.385       .  S
C2019      F2025   1.383       .  S
C2022      F2026   1.381       .  S
C2022      F2027   1.382       .  S
C2022      F2028   1.385       .  S
