geometry optimzed in LAMMPS
_audit_creation_date              2020-12-01 
_audit_creation_method            'lammps2cif' 
_symmetry_space_group_name_H-M    'P1' 
_symmetry_Int_Tables_number       1 
_symmetry_cell_setting            triclinic 
loop_ 
_symmetry_equiv_pos_as_xyz 
  x,y,z 
_cell_length_a                    42.21001408 
_cell_length_b                    48.79126730402433 
_cell_length_c                    47.27137617197592 
_cell_angle_alpha                 91.8500861930661 
_cell_angle_beta                  88.28935464477325 
_cell_angle_gamma                 120.62781593845367 
loop_ 
_atom_site_label 
_atom_site_type_symbol 
_atom_site_fract_x 
_atom_site_fract_y 
_atom_site_fract_z 
_atom_site_charge 
C1          C  0.06458872  0.16184137  0.37893660     0.02800
C2          C  0.05867518  0.14511843  0.40427882    -0.13300
C3          C  0.04113766  0.11180670  0.40373057     0.00300
C4          C  0.02958323  0.09557615  0.37756696    -0.11900
C5          C  0.03848386  0.11165562  0.35180237     0.02800
C6          C  0.05450466  0.14480226  0.35271301    -0.11300
H7          H  0.06953932  0.15803736  0.42402938     0.08400
H8          H  0.01578597  0.06980253  0.37708108     0.05900
H9          H  0.06095522  0.15745516  0.33301388     0.05800
C10         C  0.06022946  0.41125681  0.37029919     0.02800
C11         C  0.04906569  0.41835965  0.39669314    -0.13300
C12         C  0.03133684  0.43605742  0.39792293     0.00300
C13         C  0.02183285  0.44377091  0.37228807    -0.11900
C14         C  0.03393252  0.43812856  0.34587739     0.02800
C15         C  0.05248004  0.42114746  0.34499746    -0.11300
H16         H  0.05637098  0.41197137  0.41616929     0.08400
H17         H  0.00754414  0.45699755  0.37299173     0.05900
H18         H  0.06307235  0.41750764  0.32494717     0.05800
C19         C  0.14737363  0.29975659  0.37405226     0.02800
C20         C  0.12707869  0.31504978  0.37137000    -0.13300
C21         C  0.14494887  0.34809887  0.36794739     0.00300
C22         C  0.18348465  0.36587888  0.36769796    -0.11900
C23         C  0.20435764  0.35139632  0.37181804     0.02800
C24         C  0.18610879  0.31816879  0.37497169    -0.11300
H25         H  0.09726985  0.30115736  0.37212768     0.08400
H26         H  0.19741501  0.39142098  0.36491359     0.05900
H27         H  0.20182715  0.30672767  0.37868304     0.05800
C28         C  0.36072823  0.44212825  0.37648486     0.02800
C29         C  0.37951341  0.45412893  0.35045645    -0.13300
C30         C  0.41705529  0.47750726  0.35020821     0.00300
C31         C  0.43465544  0.48977935  0.37594519    -0.11900
C32         C  0.41773912  0.47613126  0.40160206     0.02800
C33         C  0.38049079  0.45233292  0.40193320    -0.11300
H34         H  0.36518290  0.44491882  0.33065618     0.08400
H35         H  0.46307755  0.00904632  0.37588969     0.05900
H36         H  0.36708869  0.44131273  0.42170816     0.05800
Zr37       Zr  0.03225804  0.02269024  0.05301821     2.17500
O38         O  0.49080917  0.00793543  0.09387829    -0.51600
O39         O  0.08967442  0.04569307  0.07730972    -0.74800
O40         O  0.02878674  0.47873290  0.07662686    -0.81600
O41         O  0.03265617  0.10108699  0.05043773    -0.83400
O42         O  0.02550698  0.44107869  0.04547161    -0.79000
O43         O  0.03256024  0.06517996  0.07986493    -0.90600
O44         O  0.13903312  0.06628955  0.04752104    -0.76600
O45         O  0.07002655  0.00788441  0.02667385    -0.86100
O46         O  0.07403121  0.06933272  0.02842228    -0.85800
O47         O  0.48988953  0.47675996  0.02613056    -0.72500
O48         O  0.99351789  0.03502090  0.02730624    -0.84700
Zr49       Zr  0.03277333  0.02231468  0.44659541     2.26400
Zr50       Zr  0.02830261  0.46275723  0.99813208     2.06300
Zr51       Zr  0.03592197  0.08175336  0.50165958     2.10000
Zr52       Zr  0.11145005  0.05446215  0.00117019     1.78800
O53         O  0.99020880  0.09805914  0.50097515    -0.93500
O54         O  0.15023715  0.03078050  0.00020466    -0.41300
O55         O  0.07451967  0.06790799  0.47385360    -0.77900
O56         O  0.07100512  0.00932245  0.47227950    -0.96600
O57         O  0.99090328  0.47550314  0.47090948    -0.89900
O58         O  0.99469598  0.03667665  0.47316663    -0.92700
C59         C  0.12442937  0.06002709  0.07232801     1.01000
C60         C  0.03251350  0.09087629  0.07539964     1.13900
C61         C  0.02658486  0.45206481  0.07088629     1.04700
O62         O  0.07108622  0.44319715  0.99773285    -0.94900
O63         O  0.03074501  0.44329356  0.44923655    -0.90600
O64         O  0.02876580  0.47831888  0.41987413    -0.83800
C65         C  0.02959952  0.45297831  0.42430809     1.11400
O66         O  0.41431138  0.47384017  0.04079883    -0.96900
Zr67       Zr  0.45317321  0.48985304  0.49824632     1.88900
O68         O  0.47598816  0.99945066  0.42161438    -0.73500
O69         O  0.47448617  0.40928491  0.49620859    -0.52800
O70         O  0.41198301  0.43235570  0.49435508    -0.97500
O71         O  0.41051167  0.00965251  0.49970225    -0.54700
O72         O  0.42660444  0.47930961  0.45149374    -0.74000
C73         C  0.44126587  0.48546979  0.42667821     0.98300
O74         O  0.07896212  0.04001752  0.40868799    -0.62900
O75         O  0.08779881  0.13625718  0.00286704    -0.57700
O76         O  0.03670497  0.06632827  0.42255125    -0.94400
O77         O  0.04012289  0.10372427  0.45425173    -0.92800
O78         O  0.15630658  0.11131376  0.00295915    -0.93100
O79         O  0.15141171  0.07217188  0.45925933    -0.91900
C80         C  0.03913949  0.09307267  0.42870420     1.17100
H81         H  0.08898212  0.08674152  0.04128461     0.33100
H82         H  0.08552147  0.00420750  0.45938919     0.43900
H83         H  0.48115809  0.04248535  0.46099638     0.37500
H84         H  0.47394392  0.45962464  0.03858280     0.33900
H85         H  0.17495526  0.04849574  0.00548001     0.25700
H86         H  0.48465455  0.39496354  0.49671424     0.31700
H87         H  0.38914973  0.42950858  0.48616022     0.37600
H88         H  0.17972217  0.11275986  0.00800894     0.32000
H89         H  0.07657241  0.14955627  0.00678334     0.30900
H90         H  0.00383783  0.12092569  0.50651090     0.32600
H91         H  0.38788282  0.99254097  0.49066372     0.31600
H92         H  0.14562431  0.05245389  0.44851380     0.35600
H93         H  0.09668829  0.06265749  0.41334231     0.28300
H94         H  0.50524082  0.00679243  0.10941477     0.32500
H95         H  0.38929630  0.45785639  0.03437164     0.35400
H96         H  0.10098344  0.13797565  0.02041025     0.28000
H97         H  0.09291272  0.02909926  0.41168243     0.40900
H98         H  0.09354610  0.46000338  0.98820759     0.30900
H99         H  0.14178460  0.01656640  0.01667239     0.38500
H100        H  0.42085131  0.02723493  0.48605613     0.30400
H101        H  0.46188269  0.40661417  0.01478873     0.30400
H102        H  0.47129309  0.48558118  0.09012589     0.30700
Zr103      Zr  0.03292062  0.02363562  0.30303187     2.17500
O104        O  0.07355627  0.03894793  0.34325529    -0.51600
O105        O  0.47522033  0.00107917  0.32841253    -0.74800
O106        O  0.03464947  0.06678009  0.32958399    -0.81600
O107        O  0.03327394  0.44559149  0.29545413    -0.83400
O108        O  0.03754699  0.10394856  0.30046919    -0.79000
O109        O  0.03244204  0.48112652  0.32721490    -0.90600
O110        O  0.42604454  0.48121190  0.29983495    -0.76600
O111        O  0.99901023  0.03613654  0.27584508    -0.86100
O112        O  0.99189113  0.47645411  0.27778897    -0.85800
O113        O  0.07612846  0.07014887  0.27778644    -0.72500
O114        O  0.07263140  0.01159799  0.27528099    -0.84700
Zr115      Zr  0.03398659  0.02423821  0.19719076     2.26400
Zr116      Zr  0.03663279  0.08232985  0.25202068     2.06300
Zr117      Zr  0.03095986  0.46493381  0.24818236     2.10000
Zr118      Zr  0.45477825  0.49130545  0.25310242     1.78800
O119        O  0.07913630  0.45143133  0.24558380    -0.93500
O120        O  0.41427555  0.01324558  0.25314770    -0.41300
O121        O  0.49190002  0.47801570  0.22290961    -0.77900
O122        O  0.99408973  0.03645870  0.22458805    -0.96600
O123        O  0.07070802  0.06577213  0.22604654    -0.89900
O124        O  0.07225702  0.00983578  0.22037944    -0.92700
C125        C  0.44050729  0.48728495  0.32432639     1.01000
C126        C  0.03289187  0.45562044  0.32101757     1.13900
C127        C  0.03638562  0.09322101  0.32534136     1.04700
O128        O  0.99164224  0.09953114  0.25500365    -0.94900
O129        O  0.03549351  0.10243761  0.20454049    -0.90600
O130        O  0.03809924  0.06788773  0.17261405    -0.83800
C131        C  0.03684653  0.09300090  0.17886330     1.11400
O132        O  0.15060933  0.07340765  0.28889558    -0.96900
Zr133      Zr  0.11257179  0.05666797  0.24685071     1.88900
O134        O  0.09095204  0.04796346  0.17104217    -0.73500
O135        O  0.08890169  0.13661924  0.25106573    -0.52800
O136        O  0.15581454  0.11373898  0.24380839    -0.97500
O137        O  0.15251852  0.03405127  0.24651072    -0.54700
O138        O  0.14022667  0.06673114  0.19950792    -0.74000
C139        C  0.12559782  0.06108434  0.17504099     0.98300
O140        O  0.48830593  0.00644593  0.16024235    -0.62900
O141        O  0.48167201  0.40935480  0.24857693    -0.57700
O142        O  0.03164055  0.48101185  0.17014069    -0.94400
O143        O  0.02713432  0.44316479  0.19944712    -0.92800
O144        O  0.41240588  0.43406947  0.25592996    -0.93100
O145        O  0.41559258  0.47094017  0.21176184    -0.91900
C146        C  0.02878299  0.45410687  0.17455050     1.17100
H147        H  0.47690112  0.45905081  0.29028781     0.33100
H148        H  0.47958773  0.04146090  0.21268228     0.43900
H149        H  0.08600744  0.00422169  0.20714548     0.37500
H150        H  0.09171377  0.08736705  0.29059828     0.33900
H151        H  0.38997501  0.99560009  0.25945194     0.25700
H152        H  0.07835058  0.15003677  0.25689884     0.31700
H153        H  0.17918708  0.11558458  0.23688026     0.37600
H154        H  0.38820086  0.43179013  0.26078770     0.32000
H155        H  0.49376114  0.39744744  0.25389687     0.30900
H156        H  0.06689016  0.42899906  0.25157842     0.32600
H157        H  0.17619880  0.05076032  0.23831669     0.31600
H158        H  0.42150578  0.98999975  0.20086133     0.35600
H159        H  0.47080709  0.48370805  0.16413321     0.28300
H160        H  0.05833558  0.03908798  0.35951757     0.32500
H161        H  0.17640107  0.08528827  0.28183245     0.35400
H162        H  0.46608079  0.40779406  0.26522675     0.28000
H163        H  0.47401083  0.01707238  0.16459218     0.40900
H164        H  0.47416617  0.08756360  0.23961092     0.30900
H165        H  0.42271575  0.02888541  0.26910437     0.38500
H166        H  0.14242568  0.01687844  0.23186247     0.30400
H167        H  0.10417079  0.13821920  0.26723670     0.30400
H168        H  0.09239949  0.06161462  0.34043923     0.30700
C169        C  0.20515528  0.10413826  0.12243617     0.02800
C170        C  0.18546811  0.09337206  0.09695222    -0.13300
C171        C  0.14799424  0.06996495  0.09749079     0.00300
C172        C  0.13092810  0.05733770  0.12341549    -0.11900
C173        C  0.14873269  0.07009398  0.14902598     0.02800
C174        C  0.18634352  0.09295338  0.14855099    -0.11300
H175        H  0.19909825  0.10365051  0.07702633     0.09000
H176        H  0.10233788  0.03841021  0.12376135     0.05900
H177        H  0.20074525  0.10247200  0.16828687     0.05800
C178        C  0.00683137  0.13601706  0.13019539     0.02800
C179        C  0.01387411  0.12600478  0.10350007    -0.13300
C180        C  0.03166854  0.10833156  0.10173411     0.00300
C181        C  0.04356031  0.10207156  0.12695910    -0.11900
C182        C  0.03481423  0.10996405  0.15382512     0.02800
C183        C  0.01794425  0.12834255  0.15520547    -0.11300
H184        H  0.00349718  0.13026425  0.08445263     0.08400
H185        H  0.05734550  0.08843187  0.12572573     0.05900
H186        H  0.01145752  0.13504109  0.17567559     0.05800
C187        C  0.41719176  0.24722955  0.13073200     0.02800
C188        C  0.37885184  0.22778859  0.12756414    -0.13300
C189        C  0.36172221  0.19442930  0.12906912     0.00300
C190        C  0.38383449  0.18075184  0.13172976    -0.11900
C191        C  0.42226802  0.19975632  0.13352129     0.02800
C192        C  0.43833912  0.23292152  0.13465940    -0.11300
H193        H  0.36256642  0.23852557  0.12318085     0.08400
H194        H  0.37108239  0.15506256  0.13169563     0.05900
H195        H  0.46773982  0.24778557  0.13770901     0.05800
C196        C  0.49948175  0.38450953  0.12226711     0.02800
C197        C  0.50661650  0.40056028  0.09641397    -0.13300
C198        C  0.02450717  0.43387994  0.09630272     0.00300
C199        C  0.03575079  0.45070177  0.12231062    -0.11900
C200        C  0.02608896  0.43516632  0.14837688     0.02800
C201        C  0.50906663  0.40197889  0.14815112    -0.11300
H202        H  0.49643636  0.38709415  0.07678890     0.08400
H203        H  0.04991559  0.47649085  0.12237561     0.05900
H204        H  0.50150094  0.38958319  0.16804567     0.05800
C205        C  0.46711224  0.29697239  0.10915374    -0.09500
C206        C  0.43631424  0.28232778  0.12753868     0.06700
C207        C  0.42611247  0.30172380  0.14334468    -0.03200
C208        C  0.44639957  0.33472607  0.14051958    -0.07700
C209        C  0.47772635  0.34931202  0.12282514     0.05800
C210        C  0.48809041  0.33009589  0.10700335    -0.02700
Br211      Br  0.03219421  0.34765028  0.08409692    -0.02400
H212        H  0.47548911  0.28257296  0.09684559     0.09800
H213        H  0.43813341  0.34922867  0.15283895     0.07800
Br214      Br  0.38744563  0.28558358  0.17127173    -0.02800
C215        C  0.99665342  0.17932195  0.11523991    -0.09500
C216        C  0.48551811  0.15258380  0.13194277     0.06700
C217        C  0.45349095  0.14150314  0.14909259    -0.03200
C218        C  0.43438610  0.15797471  0.15016164    -0.07700
C219        C  0.44537150  0.18471390  0.13338245     0.05800
C220        C  0.47666714  0.19502008  0.11536736    -0.02700
Br221      Br  0.99174623  0.22805237  0.08818734    -0.02400
H222        H  0.02065517  0.18762702  0.10145998     0.09800
H223        H  0.41013340  0.14925794  0.16370107     0.07800
Br224      Br  0.43205851  0.10224434  0.16923009    -0.02800
C225        C  0.25761322  0.15563151  0.13945192    -0.09500
C226        C  0.24491681  0.12829684  0.12211555     0.06700
C227        C  0.27062325  0.12365789  0.10621178    -0.03200
C228        C  0.30814129  0.14629206  0.10775926    -0.07700
C229        C  0.32117811  0.17321046  0.12589330     0.05800
C230        C  0.29522289  0.17764463  0.14189189    -0.02700
Br231      Br  0.30856040  0.21073314  0.16991702    -0.02400
H232        H  0.23813530  0.15931821  0.15199448     0.09800
H233        H  0.32739128  0.14222470  0.09532640     0.07800
Br234      Br  0.25668926  0.08539356  0.08438696    -0.02800
C235        C  0.25816616  0.39869743  0.39322729    -0.09500
C236        C  0.24488112  0.37212471  0.37470432     0.06700
C237        C  0.27035551  0.36811387  0.35772176    -0.03200
C238        C  0.30797653  0.39069937  0.35915644    -0.07700
C239        C  0.32097652  0.41777339  0.37695779     0.05800
C240        C  0.29559836  0.42158566  0.39422615    -0.02700
Br241      Br  0.30962537  0.45892329  0.41754565    -0.02400
H242        H  0.23903115  0.40230682  0.40632182     0.09800
H243        H  0.32716250  0.38745565  0.34578559     0.07800
Br244      Br  0.25572506  0.33427002  0.33027390    -0.02800
C245        C  0.07283401  0.36963671  0.35073128    -0.09500
C246        C  0.08278306  0.39588389  0.36911988     0.06700
C247        C  0.11496680  0.40777352  0.38519729    -0.03200
C248        C  0.13435269  0.39162180  0.38471892    -0.07700
C249        C  0.12371937  0.36467025  0.36709916     0.05800
C250        C  0.09347242  0.35449617  0.34911154    -0.02700
Br251      Br  0.08115464  0.32219636  0.32021653    -0.02400
H252        H  0.04914498  0.36111890  0.33728929     0.09800
H253        H  0.15820296  0.40045529  0.39803645     0.07800
Br254      Br  0.13601143  0.44760369  0.40593167    -0.02800
C255        C  0.09939511  0.24952989  0.39675525    -0.09500
C256        C  0.12758866  0.26456673  0.37628730     0.06700
C257        C  0.13458424  0.24556950  0.35703877    -0.03200
C258        C  0.11454401  0.21250194  0.35900838    -0.07700
C259        C  0.08597177  0.19727496  0.37909747     0.05800
C260        C  0.07839923  0.21622784  0.39817780    -0.02700
Br261      Br  0.03832202  0.19841625  0.42520403    -0.02400
H262        H  0.09319376  0.26379492  0.41136951     0.09800
H263        H  0.12101333  0.19855051  0.34423148     0.07800
Br264      Br  0.16819318  0.26281054  0.32560474    -0.02800
C265        C  0.06458882  0.16184138  0.87893655     0.02800
C266        C  0.05867531  0.14511845  0.90427876    -0.13300
C267        C  0.04113774  0.11180673  0.90373053     0.00300
C268        C  0.02958322  0.09557616  0.87756693    -0.11900
C269        C  0.03848383  0.11165562  0.85180232     0.02800
C270        C  0.05450469  0.14480226  0.85271296    -0.11300
H271        H  0.06953955  0.15803740  0.92402930     0.08400
H272        H  0.01578587  0.06980254  0.87708107     0.05900
H273        H  0.06095521  0.15745516  0.83301383     0.05800
C274        C  0.06022941  0.41125680  0.87029916     0.02800
C275        C  0.04906564  0.41835964  0.89669311    -0.13300
C276        C  0.03133682  0.43605745  0.89792291     0.00300
C277        C  0.02183283  0.44377092  0.87228806    -0.11900
C278        C  0.03393253  0.43812859  0.84587739     0.02800
C279        C  0.05248004  0.42114749  0.84499744    -0.11300
H280        H  0.05637091  0.41197136  0.91616927     0.08400
H281        H  0.00754412  0.45699756  0.87299173     0.05900
H282        H  0.06307236  0.41750768  0.82494714     0.05800
C283        C  0.14737364  0.29975657  0.87405222     0.02800
C284        C  0.12707868  0.31504975  0.87137005    -0.13300
C285        C  0.14494883  0.34809885  0.86794748     0.00300
C286        C  0.18348461  0.36587888  0.86769803    -0.11900
C287        C  0.20435762  0.35139631  0.87181803     0.02800
C288        C  0.18610879  0.31816878  0.87497162    -0.11300
H289        H  0.09726985  0.30115731  0.87212777     0.08400
H290        H  0.19741497  0.39142098  0.86491370     0.05900
H291        H  0.20182716  0.30672766  0.87868289     0.05800
C292        C  0.36072817  0.44212820  0.87648488     0.02800
C293        C  0.37951332  0.45412890  0.85045645    -0.13300
C294        C  0.41705520  0.47750723  0.85020820     0.00300
C295        C  0.43465535  0.48977931  0.87594518    -0.11900
C296        C  0.41773906  0.47613122  0.90160206     0.02800
C297        C  0.38049075  0.45233287  0.90193321    -0.11300
H298        H  0.36518279  0.44491880  0.83065618     0.08400
H299        H  0.46307753  0.00904631  0.87588971     0.05900
H300        H  0.36708867  0.44131265  0.92170816     0.05800
Zr301      Zr  0.03225805  0.02269026  0.55301822     2.17500
O302        O  0.49080956  0.00793604  0.59387837    -0.51600
O303        O  0.08967440  0.04569304  0.57730972    -0.74800
O304        O  0.02878676  0.47873292  0.57662690    -0.81600
O305        O  0.03265624  0.10108705  0.55043773    -0.83400
O306        O  0.02550697  0.44107872  0.54547163    -0.79000
O307        O  0.03256035  0.06518004  0.57986492    -0.90600
O308        O  0.13903311  0.06628954  0.54752105    -0.76600
O309        O  0.07002657  0.00788444  0.52667384    -0.86100
O310        O  0.07403121  0.06933275  0.52842230    -0.85800
O311        O  0.48988962  0.47676005  0.52613058    -0.72500
O312        O  0.99351780  0.03502084  0.52730630    -0.84700
Zr313      Zr  0.03277336  0.02231470  0.94659537     2.26400
Zr314      Zr  0.02830268  0.46275723  0.49813208     2.06300
Zr315      Zr  0.03592203  0.08175340  0.00165956     2.10000
Zr316      Zr  0.11145007  0.05446219  0.50117020     1.78800
O317        O  0.99020880  0.09805913  0.00097525    -0.93500
O318        O  0.15023748  0.03078085  0.50020450    -0.41300
O319        O  0.07451971  0.06790801  0.97385358    -0.77900
O320        O  0.07100510  0.00932242  0.97227948    -0.96600
O321        O  0.99090329  0.47550320  0.97090947    -0.89900
O322        O  0.99469604  0.03667670  0.97316660    -0.92700
C323        C  0.12442935  0.06002706  0.57232801     1.01000
C324        C  0.03251363  0.09087637  0.57539964     1.13900
C325        C  0.02658488  0.45206484  0.57088631     1.04700
O326        O  0.07108565  0.44319649  0.49773309    -0.94900
O327        O  0.03074481  0.44329350  0.94923654    -0.90600
O328        O  0.02876599  0.47831902  0.91987411    -0.83800
C329        C  0.02959953  0.45297837  0.92430807     1.11400
O330        O  0.41431066  0.47383953  0.54079848    -0.96900
Zr331      Zr  0.45317322  0.48985308  0.99824631     1.88900
O332        O  0.47598813  0.99945063  0.92161442    -0.73500
O333        O  0.47448671  0.40928443  0.99620889    -0.52800
O334        O  0.41198290  0.43235577  0.99435502    -0.97500
O335        O  0.41051203  0.00965281  0.99970245    -0.54700
O336        O  0.42660439  0.47930960  0.95149375    -0.74000
C337        C  0.44126580  0.48546976  0.92667821     0.98300
O338        O  0.07896226  0.04001767  0.90868802    -0.62900
O339        O  0.08779904  0.13625702  0.50286670    -0.57700
O340        O  0.03670504  0.06632828  0.92255119    -0.94400
O341        O  0.04012303  0.10372430  0.95425168    -0.92800
O342        O  0.15630652  0.11131383  0.50295903    -0.93100
O343        O  0.15141152  0.07217183  0.95925922    -0.91900
C344        C  0.03913960  0.09307270  0.92870415     1.17100
H345        H  0.08898211  0.08674155  0.54128464     0.33100
H346        H  0.08552146  0.00420747  0.95938918     0.43900
H347        H  0.48115814  0.04248535  0.96099637     0.37500
H348        H  0.47394401  0.45962471  0.53858281     0.33900
H349        H  0.17495547  0.04849610  0.50548007     0.25700
H350        H  0.48465547  0.39496337  0.99671477     0.31700
H351        H  0.38914964  0.42950872  0.98616020     0.37600
H352        H  0.17972213  0.11275997  0.50800884     0.32000
H353        H  0.07657280  0.14955629  0.50678268     0.30900
H354        H  0.00383784  0.12092566  0.00651107     0.32600
H355        H  0.38788297  0.99254117  0.99066424     0.31600
H356        H  0.14562448  0.05245380  0.94851391     0.35600
H357        H  0.09668838  0.06265763  0.91334241     0.28300
H358        H  0.50524124  0.00679299  0.60941481     0.32500
H359        H  0.38929562  0.45785606  0.53437097     0.35400
H360        H  0.10098355  0.13797564  0.52041002     0.28000
H361        H  0.09291289  0.02909944  0.91168248     0.40900
H362        H  0.09354561  0.46000248  0.48820772     0.30900
H363        H  0.14178483  0.01656652  0.51667207     0.38500
H364        H  0.42085146  0.02723499  0.98605610     0.30400
H365        H  0.46188225  0.40661462  0.51478848     0.30400
H366        H  0.47129310  0.48558172  0.59012594     0.30700
Zr367      Zr  0.03292063  0.02363565  0.80303190     2.17500
O368        O  0.07355633  0.03894857  0.84325537    -0.51600
O369        O  0.47522038  0.00107921  0.82841253    -0.74800
O370        O  0.03464929  0.06678003  0.82958398    -0.81600
O371        O  0.03327393  0.44559151  0.79545417    -0.83400
O372        O  0.03754706  0.10394858  0.80046915    -0.79000
O373        O  0.03244212  0.48112659  0.82721494    -0.90600
O374        O  0.42604446  0.48121185  0.79983493    -0.76600
O375        O  0.99901026  0.03613652  0.77584505    -0.86100
O376        O  0.99189115  0.47645408  0.77778899    -0.85800
O377        O  0.07612844  0.07014889  0.77778642    -0.72500
O378        O  0.07263145  0.01159802  0.77528103    -0.84700
Zr379      Zr  0.03398656  0.02423815  0.69719078     2.26400
Zr380      Zr  0.03663275  0.08232982  0.75202065     2.06300
Zr381      Zr  0.03095984  0.46493374  0.74818238     2.10000
Zr382      Zr  0.45477820  0.49130538  0.75310239     1.78800
O383        O  0.07913585  0.45143074  0.74558395    -0.93500
O384        O  0.41427543  0.01324547  0.75314781    -0.41300
O385        O  0.49190006  0.47801571  0.72290958    -0.77900
O386        O  0.99408968  0.03645868  0.72458800    -0.96600
O387        O  0.07070802  0.06577213  0.72604651    -0.89900
O388        O  0.07225703  0.00983577  0.72037949    -0.92700
C389        C  0.44050721  0.48728491  0.82432637     1.01000
C390        C  0.03289190  0.45562049  0.82101760     1.13900
C391        C  0.03638556  0.09322100  0.82534133     1.04700
O392        O  0.99164233  0.09953125  0.75500387    -0.94900
O393        O  0.03549347  0.10243754  0.70454046    -0.90600
O394        O  0.03809913  0.06788762  0.67261403    -0.83800
C395        C  0.03684648  0.09300082  0.67886328     1.11400
O396        O  0.15060963  0.07340796  0.78889544    -0.96900
Zr397      Zr  0.11257181  0.05666801  0.74685071     1.88900
O398        O  0.09095196  0.04796343  0.67104214    -0.73500
O399        O  0.08890131  0.13661934  0.75106537    -0.52800
O400        O  0.15581467  0.11373902  0.74380841    -0.97500
O401        O  0.15251866  0.03405142  0.74651047    -0.54700
O402        O  0.14022659  0.06673116  0.69950790    -0.74000
C403        C  0.12559774  0.06108433  0.67504098     0.98300
O404        O  0.48830559  0.00644503  0.66024249    -0.62900
O405        O  0.48167167  0.40935489  0.74857726    -0.57700
O406        O  0.03164070  0.48101187  0.67014071    -0.94400
O407        O  0.02713425  0.44316473  0.69944712    -0.92800
O408        O  0.41240606  0.43406938  0.75592999    -0.93100
O409        O  0.41559229  0.47093967  0.71176197    -0.91900
C410        C  0.02878303  0.45410685  0.67455051     1.17100
H411        H  0.47690106  0.45905075  0.79028776     0.33100
H412        H  0.47958758  0.04146081  0.71268220     0.43900
H413        H  0.08600744  0.00422167  0.70714553     0.37500
H414        H  0.09171376  0.08736712  0.79059823     0.33900
H415        H  0.38997491  0.99559992  0.75945203     0.25700
H416        H  0.07835016  0.15003674  0.75689891     0.31700
H417        H  0.17918717  0.11558456  0.73688026     0.37600
H418        H  0.38820101  0.43178997  0.76078775     0.32000
H419        H  0.49376081  0.39744740  0.75389670     0.30900
H420        H  0.06688992  0.42899896  0.75157995     0.32600
H421        H  0.17619891  0.05076051  0.73831643     0.31600
H422        H  0.42150549  0.98999960  0.70086142     0.35600
H423        H  0.47080741  0.48370849  0.66413282     0.28300
H424        H  0.05833555  0.03908852  0.85951763     0.32500
H425        H  0.17640135  0.08528830  0.78183221     0.35400
H426        H  0.46608099  0.40779424  0.76522743     0.28000
H427        H  0.47401076  0.01707181  0.66459194     0.40900
H428        H  0.47416616  0.08756387  0.73961149     0.30900
H429        H  0.42271561  0.02888523  0.76910454     0.38500
H430        H  0.14242580  0.01687862  0.73186219     0.30400
H431        H  0.10417085  0.13821933  0.76723602     0.30400
H432        H  0.09239937  0.06161531  0.84043925     0.30700
C433        C  0.20515523  0.10413820  0.62243620     0.02800
C434        C  0.18546807  0.09337200  0.59695224    -0.13300
C435        C  0.14799421  0.06996491  0.59749080     0.00300
C436        C  0.13092804  0.05733768  0.62341549    -0.11900
C437        C  0.14873261  0.07009395  0.64902599     0.02800
C438        C  0.18634345  0.09295333  0.64855101    -0.11300
H439        H  0.19909821  0.10365045  0.57702636     0.09000
H440        H  0.10233781  0.03841021  0.62376133     0.05900
H441        H  0.20074518  0.10247192  0.66828691     0.05800
C442        C  0.00683149  0.13601712  0.63019541     0.02800
C443        C  0.01387432  0.12600491  0.60350008    -0.13300
C444        C  0.03166871  0.10833166  0.60173411     0.00300
C445        C  0.04356040  0.10207158  0.62695910    -0.11900
C446        C  0.03481427  0.10996403  0.65382512     0.02800
C447        C  0.01794430  0.12834254  0.65520549    -0.11300
H448        H  0.00349749  0.13026447  0.58445264     0.08400
H449        H  0.05734556  0.08843187  0.62572573     0.05900
H450        H  0.01145749  0.13504101  0.67567561     0.05800
C451        C  0.41719171  0.24722950  0.63073187     0.02800
C452        C  0.37885179  0.22778854  0.62756406    -0.13300
C453        C  0.36172218  0.19442926  0.62906907     0.00300
C454        C  0.38383447  0.18075180  0.63172969    -0.11900
C455        C  0.42226800  0.19975629  0.63352117     0.02800
C456        C  0.43833909  0.23292149  0.63465926    -0.11300
H457        H  0.36256636  0.23852551  0.62318077     0.08400
H458        H  0.37108235  0.15506252  0.63169562     0.05900
H459        H  0.46773980  0.24778555  0.63770883     0.05800
C460        C  0.49948170  0.38450949  0.62226707     0.02800
C461        C  0.50661643  0.40056025  0.59641393    -0.13300
C462        C  0.02450722  0.43387995  0.59630272     0.00300
C463        C  0.03575084  0.45070177  0.62231062    -0.11900
C464        C  0.02608898  0.43516631  0.64837688     0.02800
C465        C  0.50906657  0.40197885  0.64815110    -0.11300
H466        H  0.49643631  0.38709413  0.57678886     0.08400
H467        H  0.04991572  0.47649085  0.62237562     0.05900
H468        H  0.50150091  0.38958314  0.66804564     0.05800
C469        C  0.46711221  0.29697235  0.60915364    -0.09500
C470        C  0.43631419  0.28232774  0.62753856     0.06700
C471        C  0.42611242  0.30172375  0.64334459    -0.03200
C472        C  0.44639953  0.33472603  0.64051952    -0.07700
C473        C  0.47772632  0.34931198  0.62282510     0.05800
C474        C  0.48809038  0.33009585  0.60700329    -0.02700
Br475      Br  0.03219423  0.34765030  0.58409691    -0.02400
H476        H  0.47548906  0.28257293  0.59684546     0.09800
H477        H  0.43813337  0.34922862  0.65283891     0.07800
Br478      Br  0.38744552  0.28558351  0.67127161    -0.02800
C479        C  0.99665351  0.17932199  0.61523993    -0.09500
C480        C  0.48551815  0.15258380  0.63194275     0.06700
C481        C  0.45349094  0.14150312  0.64909253    -0.03200
C482        C  0.43438610  0.15797470  0.65016156    -0.07700
C483        C  0.44537152  0.18471389  0.63338236     0.05800
C484        C  0.47666723  0.19502011  0.61536734    -0.02700
Br485      Br  0.99174624  0.22805236  0.58818734    -0.02400
H486        H  0.02065527  0.18762708  0.60146001     0.09800
H487        H  0.41013336  0.14925790  0.66370096     0.07800
Br488      Br  0.43205844  0.10224428  0.66922997    -0.02800
C489        C  0.25761317  0.15563141  0.63945198    -0.09500
C490        C  0.24491677  0.12829678  0.62211558     0.06700
C491        C  0.27062320  0.12365788  0.60621174    -0.03200
C492        C  0.30814124  0.14629207  0.60775920    -0.07700
C493        C  0.32117806  0.17321043  0.62589328     0.05800
C494        C  0.29522284  0.17764456  0.64189192    -0.02700
Br495      Br  0.30856036  0.21073309  0.66991703    -0.02400
H496        H  0.23813526  0.15931809  0.65199459     0.09800
H497        H  0.32739123  0.14222475  0.59532628     0.07800
Br498      Br  0.25668922  0.08539361  0.58438683    -0.02800
C499        C  0.25816612  0.39869737  0.89322735    -0.09500
C500        C  0.24488109  0.37212468  0.87470433     0.06700
C501        C  0.27035547  0.36811386  0.85772176    -0.03200
C502        C  0.30797649  0.39069934  0.85915646    -0.07700
C503        C  0.32097647  0.41777335  0.87695783     0.05800
C504        C  0.29559832  0.42158560  0.89422621    -0.02700
Br505      Br  0.30962534  0.45892324  0.91754570    -0.02400
H506        H  0.23903112  0.40230674  0.90632190     0.09800
H507        H  0.32716246  0.38745562  0.84578561     0.07800
Br508      Br  0.25572504  0.33427008  0.83027381    -0.02800
C509        C  0.07283398  0.36963668  0.85073126    -0.09500
C510        C  0.08278301  0.39588387  0.86911985     0.06700
C511        C  0.11496673  0.40777349  0.88519730    -0.03200
C512        C  0.13435262  0.39162176  0.88471897    -0.07700
C513        C  0.12371932  0.36467021  0.86709923     0.05800
C514        C  0.09347239  0.35449613  0.84911158    -0.02700
Br515      Br  0.08115472  0.32219634  0.82021655    -0.02400
H516        H  0.04914497  0.36111887  0.83728925     0.09800
H517        H  0.15820287  0.40045526  0.89803653     0.07800
Br518      Br  0.13601134  0.44760365  0.90593169    -0.02800
C519        C  0.09939522  0.24952987  0.89675522    -0.09500
C520        C  0.12758873  0.26456672  0.87628724     0.06700
C521        C  0.13458430  0.24556950  0.85703871    -0.03200
C522        C  0.11454408  0.21250195  0.85900832    -0.07700
C523        C  0.08597187  0.19727496  0.87909743     0.05800
C524        C  0.07839934  0.21622782  0.89817777    -0.02700
Br525      Br  0.03832211  0.19841623  0.92520397    -0.02400
H526        H  0.09319392  0.26379489  0.91136952     0.09800
H527        H  0.12101341  0.19855051  0.84423144     0.07800
Br528      Br  0.16819314  0.26281054  0.82560461    -0.02800
C529        C  0.06458885  0.66184134  0.37893659     0.02800
C530        C  0.05867530  0.64511839  0.40427880    -0.13300
C531        C  0.04113776  0.61180666  0.40373056     0.00300
C532        C  0.02958329  0.59557612  0.37756694    -0.11900
C533        C  0.03848389  0.61165560  0.35180235     0.02800
C534        C  0.05450474  0.64480223  0.35271301    -0.11300
H535        H  0.06953950  0.65803733  0.42402936     0.08400
H536        H  0.01578596  0.56980249  0.37708106     0.05900
H537        H  0.06095528  0.65745514  0.33301388     0.05800
C538        C  0.06022948  0.91125685  0.37029921     0.02800
C539        C  0.04906570  0.91835969  0.39669316    -0.13300
C540        C  0.03133688  0.93605748  0.39792294     0.00300
C541        C  0.02183290  0.94377098  0.37228808    -0.11900
C542        C  0.03393254  0.93812860  0.34587741     0.02800
C543        C  0.05248004  0.92114749  0.34499748    -0.11300
H544        H  0.05637101  0.91197143  0.41616931     0.08400
H545        H  0.00754420  0.95699763  0.37299174     0.05900
H546        H  0.06307234  0.91750765  0.32494719     0.05800
C547        C  0.14737363  0.79975655  0.37405223     0.02800
C548        C  0.12707869  0.81504975  0.37137000    -0.13300
C549        C  0.14494887  0.84809884  0.36794741     0.00300
C550        C  0.18348465  0.86587885  0.36769797    -0.11900
C551        C  0.20435765  0.85139628  0.37181804     0.02800
C552        C  0.18610879  0.81816875  0.37497167    -0.11300
H553        H  0.09726986  0.80115733  0.37212768     0.08400
H554        H  0.19741502  0.89142095  0.36491361     0.05900
H555        H  0.20182714  0.80672762  0.37868300     0.05800
C556        C  0.36072823  0.94212829  0.37648486     0.02800
C557        C  0.37951338  0.95412897  0.35045644    -0.13300
C558        C  0.41705526  0.97750729  0.35020818     0.00300
C559        C  0.43465545  0.98977939  0.37594514    -0.11900
C560        C  0.41773916  0.97613130  0.40160202     0.02800
C561        C  0.38049084  0.95233296  0.40193318    -0.11300
H562        H  0.36518284  0.94491887  0.33065618     0.08400
H563        H  0.46307754  0.50904629  0.37588974     0.05900
H564        H  0.36708877  0.94131275  0.42170814     0.05800
Zr565      Zr  0.03225798  0.52269023  0.05301824     2.17500
O566        O  0.49080986  0.50793603  0.09387864    -0.51600
O567        O  0.08967437  0.54569303  0.07730971    -0.74800
O568        O  0.02878670  0.97873289  0.07662684    -0.81600
O569        O  0.03265608  0.60108697  0.05043772    -0.83400
O570        O  0.02550681  0.94107864  0.04547159    -0.79000
O571        O  0.03256030  0.56518001  0.07986491    -0.90600
O572        O  0.13903305  0.56628965  0.04752101    -0.76600
O573        O  0.07002649  0.50788443  0.02667383    -0.86100
O574        O  0.07403106  0.56933271  0.02842225    -0.85800
O575        O  0.48988960  0.97676003  0.02613050    -0.72500
O576        O  0.99351773  0.53502080  0.02730628    -0.84700
Zr577      Zr  0.03277333  0.52231462  0.44659543     2.26400
Zr578      Zr  0.02830269  0.96275726  0.99813204     2.06300
Zr579      Zr  0.03592196  0.58175333  0.50165960     2.10000
Zr580      Zr  0.11144993  0.55446219  0.00117016     1.78800
O581        O  0.99020851  0.59805879  0.50097530    -0.93500
O582        O  0.15023761  0.53078109  0.00020451    -0.41300
O583        O  0.07451970  0.56790802  0.47385358    -0.77900
O584        O  0.07100512  0.50932240  0.47227955    -0.96600
O585        O  0.99090329  0.97550319  0.47090944    -0.89900
O586        O  0.99469600  0.53667661  0.47316665    -0.92700
C587        C  0.12442932  0.56002712  0.07232798     1.01000
C588        C  0.03251350  0.59087631  0.07539962     1.13900
C589        C  0.02658475  0.95206478  0.07088627     1.04700
O590        O  0.07108596  0.94319683  0.99773303    -0.94900
O591        O  0.03074505  0.94329359  0.44923655    -0.90600
O592        O  0.02876583  0.97831893  0.41987415    -0.83800
C593        C  0.02959955  0.95297836  0.42430809     1.11400
O594        O  0.41431137  0.97384009  0.04079880    -0.96900
Zr595      Zr  0.45317321  0.98985315  0.49824628     1.88900
O596        O  0.47598811  0.49945066  0.42161445    -0.73500
O597        O  0.47448651  0.90928470  0.49620860    -0.52800
O598        O  0.41198309  0.93235580  0.49435512    -0.97500
O599        O  0.41051213  0.50965286  0.49970239    -0.54700
O600        O  0.42660451  0.97930973  0.45149369    -0.74000
C601        C  0.44126592  0.98546984  0.42667816     0.98300
O602        O  0.07896212  0.54001722  0.40868802    -0.62900
O603        O  0.08779826  0.63625726  0.00286678    -0.57700
O604        O  0.03670493  0.56632818  0.42255124    -0.94400
O605        O  0.04012308  0.60372427  0.45425172    -0.92800
O606        O  0.15630583  0.61131395  0.00295895    -0.93100
O607        O  0.15141135  0.57217161  0.45925909    -0.91900
C608        C  0.03913957  0.59307263  0.42870418     1.17100
H609        H  0.08898199  0.58674155  0.04128455     0.33100
H610        H  0.08552146  0.50420744  0.45938925     0.43900
H611        H  0.48115809  0.54248522  0.46099638     0.37500
H612        H  0.47394397  0.95962470  0.03858273     0.33900
H613        H  0.17495554  0.54849631  0.00548027     0.25700
H614        H  0.48465511  0.89496351  0.49671442     0.31700
H615        H  0.38914980  0.92950863  0.48616024     0.37600
H616        H  0.17972158  0.61276034  0.00800869     0.32000
H617        H  0.07657178  0.64955621  0.00678356     0.30900
H618        H  0.00383860  0.62092642  0.50650726     0.32600
H619        H  0.38788310  0.49254133  0.49066406     0.31600
H620        H  0.14562437  0.55245355  0.44851386     0.35600
H621        H  0.09668820  0.56265727  0.41334217     0.28300
H622        H  0.50524156  0.50679275  0.10941494     0.32500
H623        H  0.38929623  0.95785654  0.03437153     0.35400
H624        H  0.10098334  0.63797572  0.02040973     0.28000
H625        H  0.09291284  0.52909911  0.41168266     0.40900
H626        H  0.09354591  0.96000294  0.98820774     0.30900
H627        H  0.14178483  0.51656657  0.01667195     0.38500
H628        H  0.42085175  0.52723514  0.48605614     0.30400
H629        H  0.46188276  0.90661429  0.01478883     0.30400
H630        H  0.47129275  0.98558046  0.09012547     0.30700
Zr631      Zr  0.03292056  0.52363560  0.30303189     2.17500
O632        O  0.07355589  0.53894787  0.34325552    -0.51600
O633        O  0.47522039  0.50107919  0.32841257    -0.74800
O634        O  0.03464945  0.56678009  0.32958395    -0.81600
O635        O  0.03327387  0.94559149  0.29545416    -0.83400
O636        O  0.03754699  0.60394859  0.30046918    -0.79000
O637        O  0.03244211  0.98112659  0.32721492    -0.90600
O638        O  0.42604448  0.98121186  0.29983491    -0.76600
O639        O  0.99901021  0.53613655  0.27584508    -0.86100
O640        O  0.99189123  0.97645413  0.27778895    -0.85800
O641        O  0.07612839  0.57014888  0.27778646    -0.72500
O642        O  0.07263138  0.51159800  0.27528101    -0.84700
Zr643      Zr  0.03398648  0.52423818  0.19719077     2.26400
Zr644      Zr  0.03663275  0.58232988  0.25202068     2.06300
Zr645      Zr  0.03095990  0.96493377  0.24818234     2.10000
Zr646      Zr  0.45477821  0.99130543  0.25310238     1.78800
O647        O  0.07913609  0.95143097  0.24558387    -0.93500
O648        O  0.41427562  0.51324563  0.25314769    -0.41300
O649        O  0.49190002  0.97801573  0.22290955    -0.77900
O650        O  0.99408968  0.53645874  0.22458806    -0.96600
O651        O  0.07070794  0.56577213  0.22604654    -0.89900
O652        O  0.07225694  0.50983582  0.22037948    -0.92700
C653        C  0.44050724  0.98728493  0.32432635     1.01000
C654        C  0.03289186  0.95562047  0.32101760     1.13900
C655        C  0.03638562  0.59322102  0.32534134     1.04700
O656        O  0.99164192  0.59953086  0.25500346    -0.94900
O657        O  0.03549356  0.60243764  0.20454047    -0.90600
O658        O  0.03809913  0.56788768  0.17261403    -0.83800
C659        C  0.03684652  0.59300090  0.17886328     1.11400
O660        O  0.15060900  0.57340769  0.28889576    -0.96900
Zr661      Zr  0.11257174  0.55666803  0.24685074     1.88900
O662        O  0.09095195  0.54796343  0.17104216    -0.73500
O663        O  0.08890153  0.63661934  0.25106582    -0.52800
O664        O  0.15581467  0.61373902  0.24380838    -0.97500
O665        O  0.15251888  0.53405176  0.24651093    -0.54700
O666        O  0.14022659  0.56673113  0.19950792    -0.74000
C667        C  0.12559775  0.56108432  0.17504099     0.98300
O668        O  0.48830575  0.50644512  0.16024243    -0.62900
O669        O  0.48167163  0.90935490  0.24857685    -0.57700
O670        O  0.03164062  0.98101184  0.17014070    -0.94400
O671        O  0.02713434  0.94316475  0.19944710    -0.92800
O672        O  0.41240564  0.93406949  0.25592997    -0.93100
O673        O  0.41559267  0.97094033  0.21176172    -0.91900
C674        C  0.02878303  0.95410685  0.17455049     1.17100
H675        H  0.47690102  0.95905074  0.29028774     0.33100
H676        H  0.47958767  0.54146082  0.21268224     0.43900
H677        H  0.08600735  0.50422172  0.20714551     0.37500
H678        H  0.09171369  0.58736706  0.29059831     0.33900
H679        H  0.38997507  0.49560015  0.25945194     0.25700
H680        H  0.07835035  0.65003681  0.25689894     0.31700
H681        H  0.17918717  0.61558448  0.23688034     0.37600
H682        H  0.38820060  0.93179028  0.26078740     0.32000
H683        H  0.49376063  0.89744744  0.25389677     0.30900
H684        H  0.06689056  0.92899946  0.25158059     0.32600
H685        H  0.17619895  0.55076071  0.23831653     0.31600
H686        H  0.42150561  0.48999955  0.20086142     0.35600
H687        H  0.47080749  0.98370871  0.16413267     0.28300
H688        H  0.05833517  0.53908811  0.35951771     0.32500
H689        H  0.17640079  0.58528818  0.28183273     0.35400
H690        H  0.46608050  0.90779426  0.26522672     0.28000
H691        H  0.47401093  0.51707192  0.16459183     0.40900
H692        H  0.47416620  0.58756375  0.23961148     0.30900
H693        H  0.42271583  0.52888549  0.26910434     0.38500
H694        H  0.14242586  0.51687861  0.23186298     0.30400
H695        H  0.10417064  0.63821930  0.26723678     0.30400
H696        H  0.09239929  0.56161450  0.34043941     0.30700
C697        C  0.20515530  0.60413818  0.12243615     0.02800
C698        C  0.18546810  0.59337204  0.09695221    -0.13300
C699        C  0.14799420  0.56996497  0.09749077     0.00300
C700        C  0.13092805  0.55733772  0.12341547    -0.11900
C701        C  0.14873265  0.57009395  0.14902597     0.02800
C702        C  0.18634352  0.59295330  0.14855097    -0.11300
H703        H  0.19909823  0.60365050  0.07702632     0.09000
H704        H  0.10233782  0.53841026  0.12376133     0.05900
H705        H  0.20074527  0.60247187  0.16828686     0.05800
C706        C  0.00683145  0.63601714  0.13019539     0.02800
C707        C  0.01387420  0.62600488  0.10350007    -0.13300
C708        C  0.03166856  0.60833159  0.10173410     0.00300
C709        C  0.04356027  0.60207154  0.12695909    -0.11900
C710        C  0.03481424  0.60996406  0.15382511     0.02800
C711        C  0.01794432  0.62834261  0.15520547    -0.11300
H712        H  0.00349732  0.63026439  0.08445264     0.08400
H713        H  0.05734539  0.58843179  0.12572572     0.05900
H714        H  0.01145761  0.63504117  0.17567559     0.05800
C715        C  0.41719176  0.74722958  0.13073194     0.02800
C716        C  0.37885185  0.72778860  0.12756410    -0.13300
C717        C  0.36172225  0.69442931  0.12906907     0.00300
C718        C  0.38383456  0.68075188  0.13172969    -0.11900
C719        C  0.42226809  0.69975639  0.13352123     0.02800
C720        C  0.43833917  0.73292159  0.13465934    -0.11300
H721        H  0.36256640  0.73852556  0.12318083     0.08400
H722        H  0.37108247  0.65506261  0.13169557     0.05900
H723        H  0.46773986  0.74778565  0.13770895     0.05800
C724        C  0.49948177  0.88450952  0.12226709     0.02800
C725        C  0.50661652  0.90056027  0.09641395    -0.13300
C726        C  0.02450708  0.93387990  0.09630270     0.00300
C727        C  0.03575074  0.95070175  0.12231059    -0.11900
C728        C  0.02608897  0.93516631  0.14837686     0.02800
C729        C  0.50906661  0.90197889  0.14815111    -0.11300
H730        H  0.49643639  0.88709414  0.07678888     0.08400
H731        H  0.04991555  0.97649082  0.12237558     0.05900
H732        H  0.50150094  0.88958318  0.16804565     0.05800
C733        C  0.46711220  0.79697239  0.10915365    -0.09500
C734        C  0.43631422  0.78232779  0.12753861     0.06700
C735        C  0.42611247  0.80172380  0.14334464    -0.03200
C736        C  0.44639959  0.83472607  0.14051956    -0.07700
C737        C  0.47772637  0.84931202  0.12282512     0.05800
C738        C  0.48809039  0.83009588  0.10700330    -0.02700
Br739      Br  0.03219413  0.84765020  0.08409691    -0.02400
H740        H  0.47548902  0.78257295  0.09684547     0.09800
H741        H  0.43813345  0.84922868  0.15283895     0.07800
Br742      Br  0.38744563  0.78558353  0.17127171    -0.02800
C743        C  0.99665350  0.67932204  0.11523994    -0.09500
C744        C  0.48551821  0.65258388  0.13194275     0.06700
C745        C  0.45349104  0.64150325  0.14909257    -0.03200
C746        C  0.43438621  0.65797482  0.15016161    -0.07700
C747        C  0.44537161  0.68471400  0.13338241     0.05800
C748        C  0.47666726  0.69502018  0.11536733    -0.02700
Br749      Br  0.99174619  0.72805236  0.08818729    -0.02400
H750        H  0.02065522  0.68762710  0.10145998     0.09800
H751        H  0.41013350  0.64925806  0.16370105     0.07800
Br752      Br  0.43205856  0.60224446  0.16923008    -0.02800
C753        C  0.25761325  0.65563140  0.13945194    -0.09500
C754        C  0.24491685  0.62829677  0.12211553     0.06700
C755        C  0.27062329  0.62365788  0.10621169    -0.03200
C756        C  0.30814133  0.64629208  0.10775916    -0.07700
C757        C  0.32117814  0.67321045  0.12589325     0.05800
C758        C  0.29522291  0.67764455  0.14189190    -0.02700
Br759      Br  0.30856039  0.71073296  0.16991712    -0.02400
H760        H  0.23813533  0.65931805  0.15199456     0.09800
H761        H  0.32739132  0.64222477  0.09532623     0.07800
Br762      Br  0.25668930  0.58539359  0.08438682    -0.02800
C763        C  0.25816615  0.89869733  0.39322738    -0.09500
C764        C  0.24488113  0.87212466  0.37470434     0.06700
C765        C  0.27035554  0.86811389  0.35772173    -0.03200
C766        C  0.30797656  0.89069941  0.35915641    -0.07700
C767        C  0.32097652  0.91777339  0.37695781     0.05800
C768        C  0.29559835  0.92158558  0.39422624    -0.02700
Br769      Br  0.30962533  0.95892313  0.41754584    -0.02400
H770        H  0.23903113  0.90230667  0.40632194     0.09800
H771        H  0.32716253  0.88745573  0.34578552     0.07800
Br772      Br  0.25572511  0.83427014  0.33027377    -0.02800
C773        C  0.07283399  0.86963669  0.35073132    -0.09500
C774        C  0.08278305  0.89588389  0.36911991     0.06700
C775        C  0.11496681  0.90777352  0.38519731    -0.03200
C776        C  0.13435271  0.89162181  0.38471893    -0.07700
C777        C  0.12371937  0.86467024  0.36709919     0.05800
C778        C  0.09347240  0.85449616  0.34911158    -0.02700
Br779      Br  0.08115468  0.82219641  0.32021652    -0.02400
H780        H  0.04914493  0.86111887  0.33728936     0.09800
H781        H  0.15820299  0.90045530  0.39803645     0.07800
Br782      Br  0.13601148  0.94760373  0.40593164    -0.02800
C783        C  0.09939511  0.74952983  0.39675518    -0.09500
C784        C  0.12758868  0.76456669  0.37628724     0.06700
C785        C  0.13458432  0.74556949  0.35703874    -0.03200
C786        C  0.11454415  0.71250192  0.35900835    -0.07700
C787        C  0.08597190  0.69727492  0.37909744     0.05800
C788        C  0.07839928  0.71622778  0.39817773    -0.02700
Br789      Br  0.03832199  0.69841617  0.42520389    -0.02400
H790        H  0.09319370  0.76379483  0.41136942     0.09800
H791        H  0.12101352  0.69855050  0.34423149     0.07800
Br792      Br  0.16819326  0.76281058  0.32560470    -0.02800
C793        C  0.06458883  0.66184134  0.87893655     0.02800
C794        C  0.05867529  0.64511840  0.90427875    -0.13300
C795        C  0.04113767  0.61180667  0.90373051     0.00300
C796        C  0.02958317  0.59557612  0.87756691    -0.11900
C797        C  0.03848381  0.61165559  0.85180232     0.02800
C798        C  0.05450469  0.64480223  0.85271296    -0.11300
H799        H  0.06953950  0.65803734  0.92402931     0.08400
H800        H  0.01578581  0.56980249  0.87708105     0.05900
H801        H  0.06095526  0.65745513  0.83301383     0.05800
C802        C  0.06022940  0.91125678  0.87029917     0.02800
C803        C  0.04906563  0.91835961  0.89669312    -0.13300
C804        C  0.03133686  0.93605745  0.89792291     0.00300
C805        C  0.02183289  0.94377096  0.87228806    -0.11900
C806        C  0.03393254  0.93812860  0.84587739     0.02800
C807        C  0.05248004  0.92114748  0.84499745    -0.11300
H808        H  0.05637087  0.91197129  0.91616927     0.08400
H809        H  0.00754421  0.95699762  0.87299173     0.05900
H810        H  0.06307236  0.91750768  0.82494715     0.05800
C811        C  0.14737363  0.79975654  0.87405218     0.02800
C812        C  0.12707867  0.81504972  0.87136999    -0.13300
C813        C  0.14494884  0.84809882  0.86794744     0.00300
C814        C  0.18348463  0.86587885  0.86769804    -0.11900
C815        C  0.20435763  0.85139628  0.87181804     0.02800
C816        C  0.18610879  0.81816875  0.87497162    -0.11300
H817        H  0.09726983  0.80115728  0.87212764     0.08400
H818        H  0.19741500  0.89142096  0.86491374     0.05900
H819        H  0.20182715  0.80672763  0.87868291     0.05800
C820        C  0.36072823  0.94212825  0.87648486     0.02800
C821        C  0.37951339  0.95412895  0.85045644    -0.13300
C822        C  0.41705527  0.97750729  0.85020819     0.00300
C823        C  0.43465544  0.98977938  0.87594516    -0.11900
C824        C  0.41773914  0.97613128  0.90160204     0.02800
C825        C  0.38049082  0.95233293  0.90193319    -0.11300
H826        H  0.36518287  0.94491885  0.83065618     0.08400
H827        H  0.46307745  0.50904625  0.87588972     0.05900
H828        H  0.36708875  0.94131271  0.92170815     0.05800
Zr829      Zr  0.03225806  0.52269023  0.55301825     2.17500
O830        O  0.49080997  0.50793657  0.59387858    -0.51600
O831        O  0.08967442  0.54569303  0.57730974    -0.74800
O832        O  0.02878670  0.97873290  0.57662686    -0.81600
O833        O  0.03265617  0.60108702  0.55043774    -0.83400
O834        O  0.02550690  0.94107870  0.54547160    -0.79000
O835        O  0.03256027  0.56518000  0.57986492    -0.90600
O836        O  0.13903311  0.56628964  0.54752105    -0.76600
O837        O  0.07002660  0.50788444  0.52667382    -0.86100
O838        O  0.07403120  0.56933273  0.52842231    -0.85800
O839        O  0.48988959  0.97676007  0.52613048    -0.72500
O840        O  0.99351783  0.53502081  0.52730631    -0.84700
Zr841      Zr  0.03277326  0.52231469  0.94659541     2.26400
Zr842      Zr  0.02830269  0.96275728  0.49813206     2.06300
Zr843      Zr  0.03592181  0.58175333  0.00165956     2.10000
Zr844      Zr  0.11145008  0.55446222  0.50117018     1.78800
O845        O  0.99020884  0.59805935  0.00097539    -0.93500
O846        O  0.15023822  0.53078157  0.50020442    -0.41300
O847        O  0.07451957  0.56790804  0.97385359    -0.77900
O848        O  0.07100493  0.50932241  0.97227954    -0.96600
O849        O  0.99090334  0.97550322  0.97090944    -0.89900
O850        O  0.99469583  0.53667661  0.97316661    -0.92700
C851        C  0.12442936  0.56002712  0.57232801     1.01000
C852        C  0.03251353  0.59087633  0.57539964     1.13900
C853        C  0.02658478  0.95206481  0.57088628     1.04700
O854        O  0.07108576  0.94319662  0.49773298    -0.94900
O855        O  0.03074497  0.94329355  0.94923652    -0.90600
O856        O  0.02876601  0.97831901  0.91987410    -0.83800
C857        C  0.02959960  0.95297837  0.92430806     1.11400
O858        O  0.41431089  0.97383976  0.54079856    -0.96900
Zr859      Zr  0.45317328  0.98985317  0.99824631     1.88900
O860        O  0.47598804  0.49945064  0.92161444    -0.73500
O861        O  0.47448667  0.90928453  0.99620894    -0.52800
O862        O  0.41198304  0.93235584  0.99435518    -0.97500
O863        O  0.41051220  0.50965295  0.99970243    -0.54700
O864        O  0.42660449  0.97930972  0.95149373    -0.74000
C865        C  0.44126590  0.98546982  0.92667819     0.98300
O866        O  0.07896244  0.54001816  0.90868826    -0.62900
O867        O  0.08779857  0.63625720  0.50286720    -0.57700
O868        O  0.03670500  0.56632825  0.92255117    -0.94400
O869        O  0.04012279  0.60372418  0.95425166    -0.92800
O870        O  0.15630636  0.61131389  0.50295913    -0.93100
O871        O  0.15141118  0.57217111  0.95925903    -0.91900
C872        C  0.03913948  0.59307263  0.92870412     1.17100
H873        H  0.08898209  0.58674153  0.54128463     0.33100
H874        H  0.08552125  0.50420744  0.95938921     0.43900
H875        H  0.48115809  0.54248524  0.96099633     0.37500
H876        H  0.47394398  0.95962472  0.53858272     0.33900
H877        H  0.17495594  0.54849680  0.50548062     0.25700
H878        H  0.48465538  0.89496341  0.99671474     0.31700
H879        H  0.38914979  0.92950875  0.98616032     0.37600
H880        H  0.17972214  0.61276007  0.50800842     0.32000
H881        H  0.07657215  0.64955623  0.50678385     0.30900
H882        H  0.00383829  0.62092621  0.00651005     0.32600
H883        H  0.38788302  0.49254127  0.99066438     0.31600
H884        H  0.14562383  0.55245294  0.94851383     0.35600
H885        H  0.09668870  0.56265800  0.91334300     0.28300
H886        H  0.50524164  0.50679333  0.60941491     0.32500
H887        H  0.38929577  0.95785638  0.53437112     0.35400
H888        H  0.10098346  0.63797559  0.52041024     0.28000
H889        H  0.09291283  0.52909967  0.91168248     0.40900
H890        H  0.09354578  0.96000270  0.48820774     0.30900
H891        H  0.14178516  0.51656666  0.51667160     0.38500
H892        H  0.42085161  0.52723500  0.98605595     0.30400
H893        H  0.46188249  0.90661441  0.51478845     0.30400
H894        H  0.47129294  0.98558111  0.59012570     0.30700
Zr895      Zr  0.03292057  0.52363559  0.80303190     2.17500
O896        O  0.07355616  0.53894830  0.84325542    -0.51600
O897        O  0.47522032  0.50107915  0.82841254    -0.74800
O898        O  0.03464928  0.56678002  0.82958396    -0.81600
O899        O  0.03327384  0.94559148  0.79545417    -0.83400
O900        O  0.03754697  0.60394856  0.80046916    -0.79000
O901        O  0.03244220  0.98112663  0.82721494    -0.90600
O902        O  0.42604451  0.98121185  0.79983493    -0.76600
O903        O  0.99901025  0.53613651  0.77584507    -0.86100
O904        O  0.99189123  0.97645415  0.77778899    -0.85800
O905        O  0.07612839  0.57014881  0.77778642    -0.72500
O906        O  0.07263137  0.51159795  0.77528103    -0.84700
Zr907      Zr  0.03398660  0.52423818  0.69719079     2.26400
Zr908      Zr  0.03663275  0.58232982  0.75202066     2.06300
Zr909      Zr  0.03095990  0.96493378  0.74818239     2.10000
Zr910      Zr  0.45477816  0.99130538  0.75310238     1.78800
O911        O  0.07913574  0.95143056  0.74558402    -0.93500
O912        O  0.41427546  0.51324545  0.75314771    -0.41300
O913        O  0.49190003  0.97801566  0.72290961    -0.77900
O914        O  0.99408976  0.53645867  0.72458804    -0.96600
O915        O  0.07070802  0.56577213  0.72604654    -0.89900
O916        O  0.07225698  0.50983572  0.72037948    -0.92700
C917        C  0.44050728  0.98728495  0.82432637     1.01000
C918        C  0.03289189  0.95562049  0.82101760     1.13900
C919        C  0.03638552  0.59322097  0.82534133     1.04700
O920        O  0.99164191  0.59953081  0.75500330    -0.94900
O921        O  0.03549338  0.60243756  0.70454050    -0.90600
O922        O  0.03809918  0.56788769  0.67261409    -0.83800
C923        C  0.03684643  0.59300085  0.67886332     1.11400
O924        O  0.15060929  0.57340769  0.78889559    -0.96900
Zr925      Zr  0.11257176  0.55666793  0.74685072     1.88900
O926        O  0.09095202  0.54796350  0.67104217    -0.73500
O927        O  0.08890160  0.63661922  0.75106559    -0.52800
O928        O  0.15581495  0.61373887  0.74380834    -0.97500
O929        O  0.15251828  0.53405101  0.74651033    -0.54700
O930        O  0.14022665  0.56673122  0.69950792    -0.74000
C931        C  0.12559781  0.56108441  0.67504100     0.98300
O932        O  0.48830595  0.50644566  0.66024235    -0.62900
O933        O  0.48167195  0.90935487  0.74857698    -0.57700
O934        O  0.03164070  0.98101186  0.67014069    -0.94400
O935        O  0.02713434  0.94316476  0.69944712    -0.92800
O936        O  0.41240521  0.93406952  0.75593012    -0.93100
O937        O  0.41559262  0.97094018  0.71176172    -0.91900
C938        C  0.02878307  0.95410686  0.67455050     1.17100
H939        H  0.47690112  0.95905079  0.79028775     0.33100
H940        H  0.47958763  0.54146079  0.71268221     0.43900
H941        H  0.08600738  0.50422162  0.70714551     0.37500
H942        H  0.09171372  0.58736703  0.79059824     0.33900
H943        H  0.38997499  0.49560003  0.75945216     0.25700
H944        H  0.07835049  0.65003678  0.75689858     0.31700
H945        H  0.17918731  0.61558423  0.73688005     0.37600
H946        H  0.38820030  0.93179049  0.76078769     0.32000
H947        H  0.49376107  0.89744751  0.75389691     0.30900
H948        H  0.06689027  0.92899934  0.75158157     0.32600
H949        H  0.17619862  0.55076013  0.73831644     0.31600
H950        H  0.42150522  0.48999895  0.70086141     0.35600
H951        H  0.47080699  0.98370797  0.66413334     0.28300
H952        H  0.05833545  0.53908840  0.85951767     0.32500
H953        H  0.17640103  0.58528807  0.78183244     0.35400
H954        H  0.46608085  0.90779423  0.76522686     0.28000
H955        H  0.47401096  0.51707225  0.66459201     0.40900
H956        H  0.47416630  0.58756408  0.73961184     0.30900
H957        H  0.42271582  0.52888547  0.76910425     0.38500
H958        H  0.14242548  0.51687837  0.73186191     0.30400
H959        H  0.10417070  0.63821927  0.76723659     0.30400
H960        H  0.09239934  0.56161499  0.84043926     0.30700
C961        C  0.20515530  0.60413828  0.62243617     0.02800
C962        C  0.18546811  0.59337209  0.59695222    -0.13300
C963        C  0.14799424  0.56996501  0.59749079     0.00300
C964        C  0.13092810  0.55733780  0.62341550    -0.11900
C965        C  0.14873269  0.57009406  0.64902599     0.02800
C966        C  0.18634353  0.59295342  0.64855100    -0.11300
H967        H  0.19909824  0.60365052  0.57702632     0.09000
H968        H  0.10233788  0.53841030  0.62376135     0.05900
H969        H  0.20074527  0.60247203  0.66828689     0.05800
C970        C  0.00683151  0.63601721  0.63019540     0.02800
C971        C  0.01387428  0.62600494  0.60350009    -0.13300
C972        C  0.03166858  0.60833161  0.60173413     0.00300
C973        C  0.04356023  0.60207151  0.62695913    -0.11900
C974        C  0.03481416  0.60996401  0.65382515     0.02800
C975        C  0.01794429  0.62834261  0.65520549    -0.11300
H976        H  0.00349747  0.63026450  0.58445264     0.08400
H977        H  0.05734531  0.58843172  0.62572577     0.05900
H978        H  0.01145756  0.63504116  0.67567561     0.05800
C979        C  0.41719175  0.74722955  0.63073187     0.02800
C980        C  0.37885183  0.72778859  0.62756405    -0.13300
C981        C  0.36172222  0.69442931  0.62906907     0.00300
C982        C  0.38383451  0.68075186  0.63172974    -0.11900
C983        C  0.42226803  0.69975635  0.63352128     0.02800
C984        C  0.43833913  0.73292155  0.63465933    -0.11300
H985        H  0.36256639  0.73852555  0.62318074     0.08400
H986        H  0.37108239  0.65506259  0.63169569     0.05900
H987        H  0.46773983  0.74778561  0.63770891     0.05800
C988        C  0.49948178  0.88450950  0.62226706     0.02800
C989        C  0.50661647  0.90056025  0.59641392    -0.13300
C990        C  0.02450712  0.93387992  0.59630270     0.00300
C991        C  0.03575081  0.95070175  0.62231059    -0.11900
C992        C  0.02608901  0.93516631  0.64837686     0.02800
C993        C  0.50906664  0.90197887  0.64815108    -0.11300
H994        H  0.49643634  0.88709411  0.57678885     0.08400
H995        H  0.04991571  0.97649083  0.62237558     0.05900
H996        H  0.50150101  0.88958317  0.66804562     0.05800
C997        C  0.46711220  0.79697236  0.60915358    -0.09500
C998        C  0.43631424  0.78232776  0.62753855     0.06700
C999        C  0.42611254  0.80172376  0.64334465    -0.03200
C1000       C  0.44639966  0.83472604  0.64051957    -0.07700
C1001       C  0.47772641  0.84931200  0.62282510     0.05800
C1002       C  0.48809040  0.83009586  0.60700323    -0.02700
Br1003     Br  0.03219411  0.84765024  0.58409695    -0.02400
H1004       H  0.47548900  0.78257292  0.59684537     0.09800
H1005       H  0.43813357  0.84922864  0.65283902     0.07800
Br1006     Br  0.38744577  0.78558349  0.67127176    -0.02800
C1007       C  0.99665356  0.67932212  0.61523992    -0.09500
C1008       C  0.48551812  0.65258382  0.63194281     0.06700
C1009       C  0.45349097  0.64150320  0.64909266    -0.03200
C1010       C  0.43438614  0.65797478  0.65016172    -0.07700
C1011       C  0.44537153  0.68471394  0.63338248     0.05800
C1012       C  0.47666716  0.69502011  0.61536740    -0.02700
Br1013     Br  0.99174632  0.72805251  0.58818733    -0.02400
H1014       H  0.02065532  0.68762721  0.60146000     0.09800
H1015       H  0.41013346  0.64925804  0.66370117     0.07800
Br1016     Br  0.43205849  0.60224440  0.66923016    -0.02800
C1017       C  0.25761324  0.65563147  0.63945196    -0.09500
C1018       C  0.24491684  0.62829685  0.62211555     0.06700
C1019       C  0.27062327  0.62365794  0.60621171    -0.03200
C1020       C  0.30814131  0.64629213  0.60775918    -0.07700
C1021       C  0.32117812  0.67321048  0.62589327     0.05800
C1022       C  0.29522290  0.67764460  0.64189192    -0.02700
Br1023     Br  0.30856040  0.71073308  0.66991709    -0.02400
H1024       H  0.23813533  0.65931815  0.65199457     0.09800
H1025       H  0.32739130  0.64222480  0.59532627     0.07800
Br1026     Br  0.25668928  0.58539367  0.58438680    -0.02800
C1027       C  0.25816615  0.89869732  0.89322737    -0.09500
C1028       C  0.24488112  0.87212465  0.87470434     0.06700
C1029       C  0.27035551  0.86811386  0.85772173    -0.03200
C1030       C  0.30797654  0.89069936  0.85915642    -0.07700
C1031       C  0.32097651  0.91777335  0.87695781     0.05800
C1032       C  0.29559835  0.92158556  0.89422622    -0.02700
Br1033     Br  0.30962533  0.95892318  0.91754573    -0.02400
H1034       H  0.23903114  0.90230666  0.90632195     0.09800
H1035       H  0.32716250  0.88745566  0.84578554     0.07800
Br1036     Br  0.25572508  0.83427010  0.83027377    -0.02800
C1037       C  0.07283394  0.86963663  0.85073128    -0.09500
C1038       C  0.08278298  0.89588383  0.86911986     0.06700
C1039       C  0.11496672  0.90777347  0.88519729    -0.03200
C1040       C  0.13435263  0.89162175  0.88471896    -0.07700
C1041       C  0.12371932  0.86467020  0.86709921     0.05800
C1042       C  0.09347237  0.85449611  0.84911157    -0.02700
Br1043     Br  0.08115476  0.82219639  0.82021649    -0.02400
H1044       H  0.04914490  0.86111881  0.83728930     0.09800
H1045       H  0.15820288  0.90045525  0.89803650     0.07800
Br1046     Br  0.13601136  0.94760366  0.90593165    -0.02800
C1047       C  0.09939521  0.74952983  0.89675517    -0.09500
C1048       C  0.12758871  0.76456669  0.87628720     0.06700
C1049       C  0.13458430  0.74556948  0.85703867    -0.03200
C1050       C  0.11454410  0.71250193  0.85900829    -0.07700
C1051       C  0.08597191  0.69727493  0.87909742     0.05800
C1052       C  0.07839936  0.71622779  0.89817775    -0.02700
Br1053     Br  0.03832214  0.69841620  0.92520396    -0.02400
H1054       H  0.09319390  0.76379485  0.91136947     0.09800
H1055       H  0.12101345  0.69855049  0.84423142     0.07800
Br1056     Br  0.16819317  0.76281057  0.82560460    -0.02800
C1057       C  0.56458877  0.16184137  0.37893660     0.02800
C1058       C  0.55867523  0.14511843  0.40427881    -0.13300
C1059       C  0.54113772  0.11180670  0.40373056     0.00300
C1060       C  0.52958329  0.09557615  0.37756694    -0.11900
C1061       C  0.53848390  0.11165562  0.35180235     0.02800
C1062       C  0.55450470  0.14480225  0.35271301    -0.11300
H1063       H  0.56953937  0.15803736  0.42402937     0.08400
H1064       H  0.51578603  0.06980252  0.37708107     0.05900
H1065       H  0.56095526  0.15745515  0.33301388     0.05800
C1066       C  0.56022942  0.41125680  0.37029921     0.02800
C1067       C  0.54906563  0.41835962  0.39669315    -0.13300
C1068       C  0.53133681  0.43605740  0.39792294     0.00300
C1069       C  0.52183283  0.44377090  0.37228808    -0.11900
C1070       C  0.53393254  0.43812858  0.34587741     0.02800
C1071       C  0.55248005  0.42114749  0.34499748    -0.11300
H1072       H  0.55637090  0.41197133  0.41616931     0.08400
H1073       H  0.50754415  0.45699757  0.37299173     0.05900
H1074       H  0.56307238  0.41750769  0.32494718     0.05800
C1075       C  0.64737360  0.29975660  0.37405224     0.02800
C1076       C  0.62707868  0.31504979  0.37136999    -0.13300
C1077       C  0.64494886  0.34809888  0.36794738     0.00300
C1078       C  0.68348464  0.36587890  0.36769795    -0.11900
C1079       C  0.70435763  0.35139633  0.37181802     0.02800
C1080       C  0.68610877  0.31816880  0.37497166    -0.11300
H1081       H  0.59726984  0.30115736  0.37212767     0.08400
H1082       H  0.69741500  0.39142100  0.36491360     0.05900
H1083       H  0.70182713  0.30672769  0.37868299     0.05800
C1084       C  0.86072825  0.44212822  0.37648487     0.02800
C1085       C  0.87951342  0.45412891  0.35045645    -0.13300
C1086       C  0.91705530  0.47750724  0.35020820     0.00300
C1087       C  0.93465547  0.48977931  0.37594518    -0.11900
C1088       C  0.91773916  0.47613122  0.40160206     0.02800
C1089       C  0.88049083  0.45233288  0.40193320    -0.11300
H1090       H  0.86518291  0.44491882  0.33065618     0.08400
H1091       H  0.96307761  0.00904629  0.37588973     0.05900
H1092       H  0.86708874  0.44131268  0.42170816     0.05800
Zr1093     Zr  0.53225797  0.02269018  0.05301825     2.17500
O1094       O  0.99080989  0.00793618  0.09387860    -0.51600
O1095       O  0.58967437  0.04569309  0.07730978    -0.74800
O1096       O  0.52878681  0.47873292  0.07662689    -0.81600
O1097       O  0.53265612  0.10108698  0.05043773    -0.83400
O1098       O  0.52550690  0.44107867  0.04547164    -0.79000
O1099       O  0.53256014  0.06517992  0.07986494    -0.90600
O1100       O  0.63903306  0.06628955  0.04752107    -0.76600
O1101       O  0.57002650  0.00788437  0.02667385    -0.86100
O1102       O  0.57403112  0.06933267  0.02842232    -0.85800
O1103       O  0.98988954  0.47676002  0.02613060    -0.72500
O1104       O  0.49351787  0.03502088  0.02730626    -0.84700
Zr1105     Zr  0.53277332  0.02231467  0.44659538     2.26400
Zr1106     Zr  0.52830263  0.46275716  0.99813207     2.06300
Zr1107     Zr  0.53592197  0.08175338  0.50165957     2.10000
Zr1108     Zr  0.61144999  0.05446215  0.00117021     1.78800
O1109       O  0.49020893  0.09805933  0.50097539    -0.93500
O1110       O  0.65023760  0.03078099  0.00020452    -0.41300
O1111       O  0.57451962  0.06790796  0.47385360    -0.77900
O1112       O  0.57100510  0.00932242  0.47227948    -0.96600
O1113       O  0.49090333  0.47550313  0.47090943    -0.89900
O1114       O  0.49469598  0.03667668  0.47316660    -0.92700
C1115       C  0.62442932  0.06002713  0.07232804     1.01000
C1116       C  0.53251343  0.09087627  0.07539964     1.13900
C1117       C  0.52658486  0.45206481  0.07088632     1.04700
O1118       O  0.57108570  0.44319654  0.99773313    -0.94900
O1119       O  0.53074500  0.44329354  0.44923655    -0.90600
O1120       O  0.52876583  0.47831888  0.41987411    -0.83800
C1121       C  0.52959952  0.45297830  0.42430808     1.11400
O1122       O  0.91431089  0.47383992  0.04079865    -0.96900
Zr1123     Zr  0.95317321  0.48985311  0.49824635     1.88900
O1124       O  0.97598812  0.99945062  0.42161446    -0.73500
O1125       O  0.97448651  0.40928467  0.49620863    -0.52800
O1126       O  0.91198286  0.43235578  0.49435510    -0.97500
O1127       O  0.91051194  0.00965278  0.49970241    -0.54700
O1128       O  0.92660446  0.47930962  0.45149375    -0.74000
C1129       C  0.94126589  0.48546977  0.42667822     0.98300
O1130       O  0.57896234  0.04001774  0.40868810    -0.62900
O1131       O  0.58779878  0.13625716  0.00286700    -0.57700
O1132       O  0.53670502  0.06632828  0.42255123    -0.94400
O1133       O  0.54012290  0.10372425  0.45425171    -0.92800
O1134       O  0.65630599  0.11131388  0.00295906    -0.93100
O1135       O  0.65141154  0.07217170  0.45925926    -0.91900
C1136       C  0.53913954  0.09307267  0.42870418     1.17100
H1137       H  0.58898201  0.08674146  0.04128466     0.33100
H1138       H  0.58552147  0.00420748  0.45938917     0.43900
H1139       H  0.98115808  0.04248532  0.46099642     0.37500
H1140       H  0.97394395  0.45962471  0.03858285     0.33900
H1141       H  0.67495551  0.04849620  0.00548030     0.25700
H1142       H  0.98465512  0.39496349  0.49671443     0.31700
H1143       H  0.88914962  0.42950871  0.48616022     0.37600
H1144       H  0.67972174  0.11276019  0.00800867     0.32000
H1145       H  0.57657238  0.14955625  0.00678336     0.30900
H1146       H  0.50383852  0.12092629  0.50650966     0.32600
H1147       H  0.88788299  0.99254123  0.49066399     0.31600
H1148       H  0.64562430  0.05245368  0.44851387     0.35600
H1149       H  0.59668848  0.06265769  0.41334253     0.28300
H1150       H  0.00524159  0.00679287  0.10941488     0.32500
H1151       H  0.88929588  0.45785611  0.03437136     0.35400
H1152       H  0.60098349  0.13797565  0.02041017     0.28000
H1153       H  0.59291291  0.02909945  0.41168255     0.40900
H1154       H  0.59354564  0.46000253  0.98820773     0.30900
H1155       H  0.64178479  0.01656644  0.01667194     0.38500
H1156       H  0.92085152  0.02723511  0.48605620     0.30400
H1157       H  0.96188240  0.40661454  0.01478892     0.30400
H1158       H  0.97129305  0.48558116  0.09012587     0.30700
Zr1159     Zr  0.53292051  0.02363555  0.30303190     2.17500
O1160       O  0.57355571  0.03894773  0.34325559    -0.51600
O1161       O  0.97522046  0.00107923  0.32841255    -0.74800
O1162       O  0.53464939  0.06678006  0.32958395    -0.81600
O1163       O  0.53327379  0.44559143  0.29545418    -0.83400
O1164       O  0.53754701  0.10394857  0.30046917    -0.79000
O1165       O  0.53244226  0.48112664  0.32721495    -0.90600
O1166       O  0.92604452  0.48121191  0.29983495    -0.76600
O1167       O  0.49901021  0.03613651  0.27584508    -0.86100
O1168       O  0.49189119  0.47645409  0.27778904    -0.85800
O1169       O  0.57612837  0.07014877  0.27778646    -0.72500
O1170       O  0.57263133  0.01159794  0.27528102    -0.84700
Zr1171     Zr  0.53398659  0.02423822  0.19719075     2.26400
Zr1172     Zr  0.53663278  0.08232983  0.25202068     2.06300
Zr1173     Zr  0.53095986  0.46493376  0.24818239     2.10000
Zr1174     Zr  0.95477817  0.49130548  0.25310239     1.78800
O1175       O  0.57913602  0.45143096  0.24558390    -0.93500
O1176       O  0.91427497  0.01324500  0.25314755    -0.41300
O1177       O  0.99189997  0.47801572  0.22290960    -0.77900
O1178       O  0.49408976  0.03645869  0.22458806    -0.96600
O1179       O  0.57070804  0.06577214  0.22604653    -0.89900
O1180       O  0.57225694  0.00983575  0.22037947    -0.92700
C1181       C  0.94050729  0.48728496  0.32432638     1.01000
C1182       C  0.53289190  0.45562047  0.32101762     1.13900
C1183       C  0.53638562  0.09322101  0.32534134     1.04700
O1184       O  0.49164173  0.09953056  0.25500324    -0.94900
O1185       O  0.53549362  0.10243767  0.20454049    -0.90600
O1186       O  0.53809922  0.06788773  0.17261404    -0.83800
C1187       C  0.53684658  0.09300094  0.17886329     1.11400
O1188       O  0.65060931  0.07340762  0.28889561    -0.96900
Zr1189     Zr  0.61257175  0.05666793  0.24685074     1.88900
O1190       O  0.59095206  0.04796342  0.17104217    -0.73500
O1191       O  0.58890155  0.13661930  0.25106585    -0.52800
O1192       O  0.65581455  0.11373895  0.24380866    -0.97500
O1193       O  0.65251827  0.03405100  0.24651028    -0.54700
O1194       O  0.64022668  0.06673123  0.19950795    -0.74000
C1195       C  0.62559785  0.06108435  0.17504101     0.98300
O1196       O  0.98830611  0.00644610  0.16024225    -0.62900
O1197       O  0.98167197  0.40935487  0.24857700    -0.57700
O1198       O  0.53164072  0.48101187  0.17014069    -0.94400
O1199       O  0.52713434  0.44316477  0.19944713    -0.92800
O1200       O  0.91240589  0.43406951  0.25592994    -0.93100
O1201       O  0.91559264  0.47094045  0.21176172    -0.91900
C1202       C  0.52878308  0.45410687  0.17455051     1.17100
H1203       H  0.97690106  0.45905082  0.29028773     0.33100
H1204       H  0.97958766  0.04146091  0.21268230     0.43900
H1205       H  0.58600732  0.00422164  0.20714548     0.37500
H1206       H  0.59171368  0.08736695  0.29059832     0.33900
H1207       H  0.88997466  0.99559954  0.25945223     0.25700
H1208       H  0.57835036  0.15003676  0.25689898     0.31700
H1209       H  0.67918703  0.11558455  0.23688038     0.37600
H1210       H  0.88820081  0.43179014  0.26078753     0.32000
H1211       H  0.99376106  0.39744753  0.25389708     0.30900
H1212       H  0.56689027  0.42899923  0.25158000     0.32600
H1213       H  0.67619860  0.05076012  0.23831638     0.31600
H1214       H  0.92150564  0.98999937  0.20086131     0.35600
H1215       H  0.97080687  0.48370828  0.16413325     0.28300
H1216       H  0.55833497  0.03908796  0.35951777     0.32500
H1217       H  0.67640104  0.08528789  0.28183242     0.35400
H1218       H  0.96608070  0.40779422  0.26522677     0.28000
H1219       H  0.97401095  0.01707250  0.16459208     0.40900
H1220       H  0.97416640  0.08756414  0.23961150     0.30900
H1221       H  0.92271538  0.02888522  0.26910392     0.38500
H1222       H  0.64242544  0.01687836  0.23186186     0.30400
H1223       H  0.60417065  0.13821925  0.26723682     0.30400
H1224       H  0.59239910  0.06161437  0.34043949     0.30700
C1225       C  0.70515529  0.10413831  0.12243617     0.02800
C1226       C  0.68546808  0.09337214  0.09695223    -0.13300
C1227       C  0.64799424  0.06996501  0.09749081     0.00300
C1228       C  0.63092816  0.05733772  0.12341551    -0.11900
C1229       C  0.64873275  0.07009399  0.14902601     0.02800
C1230       C  0.68634357  0.09295340  0.14855101    -0.11300
H1231       H  0.69909817  0.10365066  0.07702634     0.09000
H1232       H  0.60233797  0.03841017  0.12376136     0.05900
H1233       H  0.70074532  0.10247200  0.16828689     0.05800
C1234       C  0.50683139  0.13601711  0.13019541     0.02800
C1235       C  0.51387409  0.12600481  0.10350009    -0.13300
C1236       C  0.53166850  0.10833156  0.10173411     0.00300
C1237       C  0.54356028  0.10207157  0.12695910    -0.11900
C1238       C  0.53481427  0.10996410  0.15382513     0.02800
C1239       C  0.51794429  0.12834261  0.15520549    -0.11300
H1240       H  0.50349714  0.13026427  0.08445266     0.08400
H1241       H  0.55734545  0.08843186  0.12572572     0.05900
H1242       H  0.51145762  0.13504119  0.17567561     0.05800
C1243       C  0.91719176  0.24722953  0.13073195     0.02800
C1244       C  0.87885185  0.22778858  0.12756411    -0.13300
C1245       C  0.86172221  0.19442930  0.12906909     0.00300
C1246       C  0.88383448  0.18075181  0.13172972    -0.11900
C1247       C  0.92226801  0.19975630  0.13352123     0.02800
C1248       C  0.93833912  0.23292150  0.13465934    -0.11300
H1249       H  0.86256643  0.23852557  0.12318082     0.08400
H1250       H  0.87108237  0.15506254  0.13169560     0.05900
H1251       H  0.96773981  0.24778554  0.13770896     0.05800
C1252       C  0.99948177  0.38450953  0.12226710     0.02800
C1253       C  0.00661653  0.40056028  0.09641396    -0.13300
C1254       C  0.52450718  0.43387994  0.09630274     0.00300
C1255       C  0.53575085  0.45070177  0.12231062    -0.11900
C1256       C  0.52608903  0.43516632  0.14837689     0.02800
C1257       C  0.00906661  0.40197890  0.14815112    -0.11300
H1258       H  0.99643639  0.38709415  0.07678890     0.08400
H1259       H  0.54991568  0.47649085  0.12237562     0.05900
H1260       H  0.00150094  0.38958320  0.16804566     0.05800
C1261       C  0.96711229  0.29697238  0.10915373    -0.09500
C1262       C  0.93631425  0.28232777  0.12753864     0.06700
C1263       C  0.92611244  0.30172379  0.14334459    -0.03200
C1264       C  0.94639958  0.33472606  0.14051951    -0.07700
C1265       C  0.97772640  0.34931202  0.12282513     0.05800
C1266       C  0.98809046  0.33009588  0.10700334    -0.02700
Br1267     Br  0.53219419  0.34765029  0.08409696    -0.02400
H1268       H  0.97548918  0.28257295  0.09684560     0.09800
H1269       H  0.93813341  0.34922866  0.15283888     0.07800
Br1270     Br  0.88744547  0.28558358  0.17127154    -0.02800
C1271       C  0.49665341  0.17932198  0.11523994    -0.09500
C1272       C  0.98551811  0.15258378  0.13194274     0.06700
C1273       C  0.95349095  0.14150313  0.14909256    -0.03200
C1274       C  0.93438610  0.15797470  0.15016159    -0.07700
C1275       C  0.94537150  0.18471388  0.13338239     0.05800
C1276       C  0.97666716  0.19502007  0.11536732    -0.02700
Br1277     Br  0.49174615  0.22805236  0.08818736    -0.02400
H1278       H  0.52065514  0.18762703  0.10145998     0.09800
H1279       H  0.91013342  0.14925794  0.16370103     0.07800
Br1280     Br  0.93205851  0.10224435  0.16923009    -0.02800
C1281       C  0.75761324  0.15563152  0.13945192    -0.09500
C1282       C  0.74491682  0.12829689  0.12211552     0.06700
C1283       C  0.77062324  0.12365797  0.10621169    -0.03200
C1284       C  0.80814128  0.14629215  0.10775917    -0.07700
C1285       C  0.82117811  0.17321050  0.12589327     0.05800
C1286       C  0.79522290  0.17764465  0.14189188    -0.02700
Br1287     Br  0.80856037  0.21073316  0.16991700    -0.02400
H1288       H  0.73813533  0.15931821  0.15199451     0.09800
H1289       H  0.82739126  0.14222483  0.09532625     0.07800
Br1290     Br  0.75668923  0.08539369  0.08438678    -0.02800
C1291       C  0.75816617  0.39869739  0.39322732    -0.09500
C1292       C  0.74488111  0.37212470  0.37470431     0.06700
C1293       C  0.77035549  0.36811388  0.35772172    -0.03200
C1294       C  0.80797653  0.39069936  0.35915642    -0.07700
C1295       C  0.82097653  0.41777335  0.37695781     0.05800
C1296       C  0.79559838  0.42158560  0.39422620    -0.02700
Br1297     Br  0.80962542  0.45892319  0.41754578    -0.02400
H1298       H  0.73903117  0.40230678  0.40632188     0.09800
H1299       H  0.82716248  0.38745562  0.34578557     0.07800
Br1300     Br  0.75572500  0.33427012  0.33027377    -0.02800
C1301       C  0.57283395  0.36963669  0.35073129    -0.09500
C1302       C  0.58278300  0.39588387  0.36911990     0.06700
C1303       C  0.61496676  0.40777350  0.38519731    -0.03200
C1304       C  0.63435267  0.39162179  0.38471892    -0.07700
C1305       C  0.62371935  0.36467026  0.36709915     0.05800
C1306       C  0.59347238  0.35449617  0.34911154    -0.02700
Br1307     Br  0.58115463  0.32219638  0.32021651    -0.02400
H1308       H  0.54914490  0.36111886  0.33728932     0.09800
H1309       H  0.65820294  0.40045529  0.39803644     0.07800
Br1310     Br  0.63601142  0.44760368  0.40593167    -0.02800
C1311       C  0.59939511  0.24952989  0.39675524    -0.09500
C1312       C  0.62758865  0.26456673  0.37628728     0.06700
C1313       C  0.63458425  0.24556950  0.35703877    -0.03200
C1314       C  0.61454404  0.21250195  0.35900839    -0.07700
C1315       C  0.58597180  0.19727496  0.37909747     0.05800
C1316       C  0.57839925  0.21622784  0.39817780    -0.02700
Br1317     Br  0.53832207  0.19841624  0.42520405    -0.02400
H1318       H  0.59319376  0.26379492  0.41136950     0.09800
H1319       H  0.62101338  0.19855052  0.34423150     0.07800
Br1320     Br  0.66819323  0.26281054  0.32560475    -0.02800
C1321       C  0.56458889  0.16184137  0.87893654     0.02800
C1322       C  0.55867537  0.14511844  0.90427875    -0.13300
C1323       C  0.54113777  0.11180671  0.90373053     0.00300
C1324       C  0.52958325  0.09557615  0.87756693    -0.11900
C1325       C  0.53848389  0.11165560  0.85180232     0.02800
C1326       C  0.55450474  0.14480224  0.85271296    -0.11300
H1327       H  0.56953961  0.15803739  0.92402930     0.08400
H1328       H  0.51578590  0.06980252  0.87708107     0.05900
H1329       H  0.56095529  0.15745514  0.83301383     0.05800
C1330       C  0.56022949  0.41125683  0.87029917     0.02800
C1331       C  0.54906567  0.41835964  0.89669311    -0.13300
C1332       C  0.53133681  0.43605739  0.89792290     0.00300
C1333       C  0.52183282  0.44377088  0.87228804    -0.11900
C1334       C  0.53393255  0.43812858  0.84587738     0.02800
C1335       C  0.55248010  0.42114750  0.84499745    -0.11300
H1336       H  0.55637094  0.41197135  0.91616927     0.08400
H1337       H  0.50754408  0.45699749  0.87299170     0.05900
H1338       H  0.56307244  0.41750771  0.82494715     0.05800
C1339       C  0.64737370  0.29975657  0.87405217     0.02800
C1340       C  0.62707874  0.31504974  0.87136997    -0.13300
C1341       C  0.64494889  0.34809885  0.86794743     0.00300
C1342       C  0.68348468  0.36587887  0.86769801    -0.11900
C1343       C  0.70435768  0.35139631  0.87181803     0.02800
C1344       C  0.68610885  0.31816878  0.87497162    -0.11300
H1345       H  0.59726990  0.30115730  0.87212762     0.08400
H1346       H  0.69741503  0.39142098  0.86491369     0.05900
H1347       H  0.70182722  0.30672766  0.87868293     0.05800
C1348       C  0.86072822  0.44212821  0.87648488     0.02800
C1349       C  0.87951337  0.45412891  0.85045645    -0.13300
C1350       C  0.91705524  0.47750724  0.85020819     0.00300
C1351       C  0.93465541  0.48977931  0.87594517    -0.11900
C1352       C  0.91773911  0.47613122  0.90160206     0.02800
C1353       C  0.88049080  0.45233287  0.90193321    -0.11300
H1354       H  0.86518283  0.44491880  0.83065619     0.08400
H1355       H  0.96307755  0.00904628  0.87588971     0.05900
H1356       H  0.86708872  0.44131266  0.92170816     0.05800
Zr1357     Zr  0.53225801  0.02269024  0.55301819     2.17500
O1358       O  0.99080993  0.00793615  0.59387863    -0.51600
O1359       O  0.58967442  0.04569305  0.57730970    -0.74800
O1360       O  0.52878667  0.47873290  0.57662688    -0.81600
O1361       O  0.53265622  0.10108702  0.55043774    -0.83400
O1362       O  0.52550689  0.44107870  0.54547162    -0.79000
O1363       O  0.53256026  0.06517996  0.57986492    -0.90600
O1364       O  0.63903314  0.06628960  0.54752102    -0.76600
O1365       O  0.57002653  0.00788441  0.52667382    -0.86100
O1366       O  0.57403117  0.06933274  0.52842230    -0.85800
O1367       O  0.98988958  0.47676003  0.52613059    -0.72500
O1368       O  0.49351780  0.03502087  0.52730624    -0.84700
Zr1369     Zr  0.53277332  0.02231465  0.94659539     2.26400
Zr1370     Zr  0.52830271  0.46275726  0.49813207     2.06300
Zr1371     Zr  0.53592200  0.08175337  0.00165957     2.10000
Zr1372     Zr  0.61145000  0.05446217  0.50117019     1.78800
O1373       O  0.49020862  0.09805892  0.00097524    -0.93500
O1374       O  0.65023744  0.03078085  0.50020451    -0.41300
O1375       O  0.57451967  0.06790797  0.97385357    -0.77900
O1376       O  0.57100507  0.00932239  0.97227951    -0.96600
O1377       O  0.49090326  0.47550309  0.97090944    -0.89900
O1378       O  0.49469602  0.03667668  0.97316660    -0.92700
C1379       C  0.62442938  0.06002711  0.57232799     1.01000
C1380       C  0.53251351  0.09087629  0.57539964     1.13900
C1381       C  0.52658477  0.45206481  0.57088630     1.04700
O1382       O  0.57108561  0.44319644  0.49773309    -0.94900
O1383       O  0.53074492  0.44329352  0.94923651    -0.90600
O1384       O  0.52876578  0.47831886  0.91987406    -0.83800
C1385       C  0.52959947  0.45297829  0.92430804     1.11400
O1386       O  0.91431047  0.47383947  0.54079841    -0.96900
Zr1387     Zr  0.95317317  0.48985309  0.99824635     1.88900
O1388       O  0.97598813  0.99945060  0.92161443    -0.73500
O1389       O  0.97448610  0.40928482  0.99620893    -0.52800
O1390       O  0.91198296  0.43235574  0.99435516    -0.97500
O1391       O  0.91051230  0.00965312  0.99970259    -0.54700
O1392       O  0.92660443  0.47930961  0.95149375    -0.74000
C1393       C  0.94126585  0.48546977  0.92667821     0.98300
O1394       O  0.57896218  0.04001752  0.90868802    -0.62900
O1395       O  0.58779877  0.13625717  0.50286649    -0.57700
O1396       O  0.53670498  0.06632824  0.92255122    -0.94400
O1397       O  0.54012309  0.10372431  0.95425169    -0.92800
O1398       O  0.65630566  0.11131399  0.50295896    -0.93100
O1399       O  0.65141151  0.07217180  0.95925927    -0.91900
C1400       C  0.53913960  0.09307268  0.92870416     1.17100
H1401       H  0.58898207  0.08674154  0.54128463     0.33100
H1402       H  0.58552143  0.00420745  0.95938921     0.43900
H1403       H  0.98115816  0.04248536  0.96099637     0.37500
H1404       H  0.97394397  0.45962469  0.53858281     0.33900
H1405       H  0.67495543  0.04849607  0.50548013     0.25700
H1406       H  0.98465453  0.39496349  0.99671440     0.31700
H1407       H  0.88914969  0.42950860  0.98616028     0.37600
H1408       H  0.67972155  0.11276047  0.50800844     0.32000
H1409       H  0.57657247  0.14955632  0.50678293     0.30900
H1410       H  0.50383834  0.12092616  0.00650856     0.32600
H1411       H  0.88788313  0.99254146  0.99066451     0.31600
H1412       H  0.64562442  0.05245378  0.94851391     0.35600
H1413       H  0.59668831  0.06265751  0.91334233     0.28300
H1414       H  0.00524170  0.00679300  0.60941495     0.32500
H1415       H  0.88929540  0.45785622  0.53437079     0.35400
H1416       H  0.60098376  0.13797578  0.52040953     0.28000
H1417       H  0.59291281  0.02909930  0.91168250     0.40900
H1418       H  0.59354560  0.46000243  0.48820775     0.30900
H1419       H  0.64178473  0.01656646  0.51667204     0.38500
H1420       H  0.92085168  0.02723521  0.98605614     0.30400
H1421       H  0.96188249  0.40661437  0.51478848     0.30400
H1422       H  0.97129314  0.48558110  0.59012586     0.30700
Zr1423     Zr  0.53292055  0.02363557  0.80303186     2.17500
O1424       O  0.57355607  0.03894772  0.84325534    -0.51600
O1425       O  0.97522040  0.00107916  0.82841253    -0.74800
O1426       O  0.53464947  0.06678005  0.82958398    -0.81600
O1427       O  0.53327392  0.44559148  0.79545416    -0.83400
O1428       O  0.53754701  0.10394852  0.80046916    -0.79000
O1429       O  0.53244210  0.48112655  0.82721493    -0.90600
O1430       O  0.92604446  0.48121188  0.79983492    -0.76600
O1431       O  0.49901018  0.03613647  0.77584504    -0.86100
O1432       O  0.49189114  0.47645403  0.77778899    -0.85800
O1433       O  0.57612836  0.07014885  0.77778642    -0.72500
O1434       O  0.57263141  0.01159801  0.77528099    -0.84700
Zr1435     Zr  0.53398652  0.02423813  0.69719076     2.26400
Zr1436     Zr  0.53663269  0.08232979  0.75202064     2.06300
Zr1437     Zr  0.53095985  0.46493373  0.74818237     2.10000
Zr1438     Zr  0.95477822  0.49130547  0.75310239     1.78800
O1439       O  0.57913570  0.45143052  0.74558402    -0.93500
O1440       O  0.91427554  0.01324558  0.75314772    -0.41300
O1441       O  0.99190001  0.47801570  0.72290958    -0.77900
O1442       O  0.49408963  0.03645863  0.72458800    -0.96600
O1443       O  0.57070796  0.06577210  0.72604651    -0.89900
O1444       O  0.57225699  0.00983580  0.72037947    -0.92700
C1445       C  0.94050723  0.48728494  0.82432636     1.01000
C1446       C  0.53289189  0.45562046  0.82101759     1.13900
C1447       C  0.53638563  0.09322098  0.82534133     1.04700
O1448       O  0.49164206  0.09953098  0.75500359    -0.94900
O1449       O  0.53549336  0.10243753  0.70454048    -0.90600
O1450       O  0.53809908  0.06788763  0.67261406    -0.83800
C1451       C  0.53684640  0.09300081  0.67886330     1.11400
O1452       O  0.65060914  0.07340777  0.78889568    -0.96900
Zr1453     Zr  0.61257176  0.05666801  0.74685071     1.88900
O1454       O  0.59095198  0.04796339  0.67104214    -0.73500
O1455       O  0.58890132  0.13661929  0.75106536    -0.52800
O1456       O  0.65581464  0.11373903  0.74380846    -0.97500
O1457       O  0.65251826  0.03405106  0.74651031    -0.54700
O1458       O  0.64022664  0.06673130  0.69950792    -0.74000
C1459       C  0.62559779  0.06108437  0.67504098     0.98300
O1460       O  0.98830569  0.00644513  0.66024247    -0.62900
O1461       O  0.98167197  0.40935479  0.74857725    -0.57700
O1462       O  0.53164062  0.48101181  0.67014072    -0.94400
O1463       O  0.52713434  0.44316472  0.69944712    -0.92800
O1464       O  0.91240586  0.43406949  0.75592990    -0.93100
O1465       O  0.91559257  0.47094054  0.71176179    -0.91900
C1466       C  0.52878302  0.45410682  0.67455051     1.17100
H1467       H  0.97690108  0.45905082  0.79028777     0.33100
H1468       H  0.97958764  0.04146086  0.71268219     0.43900
H1469       H  0.58600739  0.00422172  0.70714548     0.37500
H1470       H  0.59171368  0.08736707  0.79059824     0.33900
H1471       H  0.88997500  0.99560009  0.75945198     0.25700
H1472       H  0.57835013  0.15003674  0.75689856     0.31700
H1473       H  0.67918716  0.11558458  0.73688033     0.37600
H1474       H  0.88820084  0.43179014  0.76078768     0.32000
H1475       H  0.99376119  0.39744745  0.75389697     0.30900
H1476       H  0.56688967  0.42899868  0.75157985     0.32600
H1477       H  0.67619861  0.05076015  0.73831642     0.31600
H1478       H  0.92150556  0.98999957  0.70086140     0.35600
H1479       H  0.97080743  0.48370849  0.66413284     0.28300
H1480       H  0.55833546  0.03908800  0.85951759     0.32500
H1481       H  0.67640091  0.08528798  0.78183257     0.35400
H1482       H  0.96608103  0.40779410  0.76522726     0.28000
H1483       H  0.97401086  0.01707190  0.66459192     0.40900
H1484       H  0.97416644  0.08756434  0.73961173     0.30900
H1485       H  0.92271575  0.02888542  0.76910439     0.38500
H1486       H  0.64242542  0.01687840  0.73186190     0.30400
H1487       H  0.60417064  0.13821938  0.76723620     0.30400
H1488       H  0.59239949  0.06161434  0.84043921     0.30700
C1489       C  0.70515528  0.10413830  0.62243619     0.02800
C1490       C  0.68546811  0.09337212  0.59695223    -0.13300
C1491       C  0.64799426  0.06996499  0.59749078     0.00300
C1492       C  0.63092811  0.05733772  0.62341547    -0.11900
C1493       C  0.64873268  0.07009400  0.64902598     0.02800
C1494       C  0.68634351  0.09295340  0.64855101    -0.11300
H1495       H  0.69909824  0.10365064  0.57702636     0.09000
H1496       H  0.60233791  0.03841019  0.62376131     0.05900
H1497       H  0.70074525  0.10247200  0.66828690     0.05800
C1498       C  0.50683140  0.13601708  0.63019540     0.02800
C1499       C  0.51387412  0.12600479  0.60350008    -0.13300
C1500       C  0.53166850  0.10833152  0.60173412     0.00300
C1501       C  0.54356019  0.10207146  0.62695912    -0.11900
C1502       C  0.53481415  0.10996399  0.65382513     0.02800
C1503       C  0.51794425  0.12834255  0.65520548    -0.11300
H1504       H  0.50349721  0.13026427  0.58445264     0.08400
H1505       H  0.55734531  0.08843172  0.62572575     0.05900
H1506       H  0.51145759  0.13504116  0.67567560     0.05800
C1507       C  0.91719179  0.24722953  0.63073188     0.02800
C1508       C  0.87885187  0.22778858  0.62756404    -0.13300
C1509       C  0.86172223  0.19442930  0.62906905     0.00300
C1510       C  0.88383449  0.18075181  0.63172971    -0.11900
C1511       C  0.92226803  0.19975629  0.63352122     0.02800
C1512       C  0.93833914  0.23292150  0.63465930    -0.11300
H1513       H  0.86256646  0.23852556  0.62318072     0.08400
H1514       H  0.87108235  0.15506254  0.63169566     0.05900
H1515       H  0.96773985  0.24778555  0.63770888     0.05800
C1516       C  0.99948176  0.38450953  0.62226708     0.02800
C1517       C  0.00661655  0.40056030  0.59641395    -0.13300
C1518       C  0.52450707  0.43387991  0.59630271     0.00300
C1519       C  0.53575074  0.45070173  0.62231061    -0.11900
C1520       C  0.52608895  0.43516627  0.64837687     0.02800
C1521       C  0.00906657  0.40197888  0.64815111    -0.11300
H1522       H  0.99643648  0.38709418  0.57678886     0.08400
H1523       H  0.54991555  0.47649080  0.62237561     0.05900
H1524       H  0.00150081  0.38958317  0.66804565     0.05800
C1525       C  0.96711228  0.29697239  0.60915366    -0.09500
C1526       C  0.93631427  0.28232777  0.62753858     0.06700
C1527       C  0.92611249  0.30172377  0.64334461    -0.03200
C1528       C  0.94639960  0.33472605  0.64051954    -0.07700
C1529       C  0.97772638  0.34931202  0.62282511     0.05800
C1530       C  0.98809043  0.33009589  0.60700329    -0.02700
Br1531     Br  0.53219420  0.34765028  0.58409695    -0.02400
H1532       H  0.97548913  0.28257296  0.59684548     0.09800
H1533       H  0.93813342  0.34922864  0.65283893     0.07800
Br1534     Br  0.88744560  0.28558353  0.67127162    -0.02800
C1535       C  0.49665351  0.17932200  0.61523995    -0.09500
C1536       C  0.98551820  0.15258381  0.63194276     0.06700
C1537       C  0.95349098  0.14150311  0.64909253    -0.03200
C1538       C  0.93438612  0.15797467  0.65016158    -0.07700
C1539       C  0.94537152  0.18471387  0.63338239     0.05800
C1540       C  0.97666721  0.19502008  0.61536733    -0.02700
Br1541     Br  0.49174636  0.22805241  0.58818735    -0.02400
H1542       H  0.52065529  0.18762708  0.60146005     0.09800
H1543       H  0.91013338  0.14925786  0.66370097     0.07800
Br1544     Br  0.93205848  0.10224426  0.66922997    -0.02800
C1545       C  0.75761326  0.15563150  0.63945198    -0.09500
C1546       C  0.74491682  0.12829688  0.62211557     0.06700
C1547       C  0.77062323  0.12365796  0.60621172    -0.03200
C1548       C  0.80814127  0.14629213  0.60775917    -0.07700
C1549       C  0.82117812  0.17321050  0.62589325     0.05800
C1550       C  0.79522293  0.17764464  0.64189191    -0.02700
Br1551     Br  0.80856048  0.21073314  0.66991705    -0.02400
H1552       H  0.73813537  0.15931819  0.65199460     0.09800
H1553       H  0.82739124  0.14222481  0.59532623     0.07800
Br1554     Br  0.75668920  0.08539367  0.58438682    -0.02800
C1555       C  0.75816617  0.39869739  0.89322733    -0.09500
C1556       C  0.74488115  0.37212469  0.87470434     0.06700
C1557       C  0.77035554  0.36811386  0.85772176    -0.03200
C1558       C  0.80797656  0.39069934  0.85915646    -0.07700
C1559       C  0.82097653  0.41777335  0.87695782     0.05800
C1560       C  0.79559837  0.42158562  0.89422620    -0.02700
Br1561     Br  0.80962539  0.45892325  0.91754570    -0.02400
H1562       H  0.73903116  0.40230677  0.90632187     0.09800
H1563       H  0.82716253  0.38745562  0.84578561     0.07800
Br1564     Br  0.75572510  0.33427008  0.83027383    -0.02800
C1565       C  0.57283404  0.36963671  0.85073129    -0.09500
C1566       C  0.58278309  0.39588390  0.86911988     0.06700
C1567       C  0.61496682  0.40777351  0.88519732    -0.03200
C1568       C  0.63435270  0.39162178  0.88471897    -0.07700
C1569       C  0.62371938  0.36467023  0.86709922     0.05800
C1570       C  0.59347243  0.35449615  0.84911159    -0.02700
Br1571     Br  0.58115467  0.32219635  0.82021657    -0.02400
H1572       H  0.54914501  0.36111890  0.83728930     0.09800
H1573       H  0.65820296  0.40045527  0.89803651     0.07800
Br1574     Br  0.63601142  0.44760367  0.90593172    -0.02800
C1575       C  0.59939528  0.24952987  0.89675518    -0.09500
C1576       C  0.62758879  0.26456671  0.87628720     0.06700
C1577       C  0.63458437  0.24556949  0.85703868    -0.03200
C1578       C  0.61454417  0.21250193  0.85900830    -0.07700
C1579       C  0.58597196  0.19727495  0.87909742     0.05800
C1580       C  0.57839942  0.21622782  0.89817775    -0.02700
Br1581     Br  0.53832220  0.19841623  0.92520396    -0.02400
H1582       H  0.59319397  0.26379489  0.91136948     0.09800
H1583       H  0.62101351  0.19855049  0.84423143     0.07800
Br1584     Br  0.66819323  0.26281053  0.82560459    -0.02800
C1585       C  0.56458878  0.66184133  0.37893660     0.02800
C1586       C  0.55867522  0.64511837  0.40427881    -0.13300
C1587       C  0.54113770  0.61180664  0.40373054     0.00300
C1588       C  0.52958326  0.59557611  0.37756693    -0.11900
C1589       C  0.53848387  0.61165560  0.35180234     0.02800
C1590       C  0.55450469  0.64480223  0.35271301    -0.11300
H1591       H  0.56953935  0.65803729  0.42402938     0.08400
H1592       H  0.51578599  0.56980248  0.37708105     0.05900
H1593       H  0.56095526  0.65745514  0.33301388     0.05800
C1594       C  0.56022945  0.91125683  0.37029917     0.02800
C1595       C  0.54906567  0.91835966  0.39669312    -0.13300
C1596       C  0.53133689  0.93605749  0.39792290     0.00300
C1597       C  0.52183291  0.94377097  0.37228804    -0.11900
C1598       C  0.53393256  0.93812860  0.34587738     0.02800
C1599       C  0.55248007  0.92114750  0.34499744    -0.11300
H1600       H  0.55637095  0.91197138  0.41616928     0.08400
H1601       H  0.50754422  0.95699763  0.37299171     0.05900
H1602       H  0.56307238  0.91750768  0.32494715     0.05800
C1603       C  0.64737361  0.79975656  0.37405224     0.02800
C1604       C  0.62707867  0.81504975  0.37136999    -0.13300
C1605       C  0.64494885  0.84809884  0.36794739     0.00300
C1606       C  0.68348465  0.86587885  0.36769797    -0.11900
C1607       C  0.70435765  0.85139628  0.37181802     0.02800
C1608       C  0.68610878  0.81816876  0.37497166    -0.11300
H1609       H  0.59726983  0.80115733  0.37212768     0.08400
H1610       H  0.69741502  0.89142095  0.36491362     0.05900
H1611       H  0.70182714  0.80672764  0.37868298     0.05800
C1612       C  0.86072828  0.94212827  0.37648484     0.02800
C1613       C  0.87951347  0.95412898  0.35045643    -0.13300
C1614       C  0.91705535  0.97750730  0.35020819     0.00300
C1615       C  0.93465550  0.98977937  0.37594517    -0.11900
C1616       C  0.91773917  0.97613128  0.40160205     0.02800
C1617       C  0.88049085  0.95233294  0.40193318    -0.11300
H1618       H  0.86518295  0.94491888  0.33065616     0.08400
H1619       H  0.96307757  0.50904623  0.37588974     0.05900
H1620       H  0.86708875  0.94131274  0.42170814     0.05800
Zr1621     Zr  0.53225801  0.52269018  0.05301824     2.17500
O1622       O  0.99080978  0.50793603  0.09387861    -0.51600
O1623       O  0.58967435  0.54569305  0.07730979    -0.74800
O1624       O  0.52878671  0.97873288  0.07662689    -0.81600
O1625       O  0.53265619  0.60108699  0.05043769    -0.83400
O1626       O  0.52550697  0.94107870  0.04547162    -0.79000
O1627       O  0.53256028  0.56517998  0.07986490    -0.90600
O1628       O  0.63903302  0.56628954  0.04752107    -0.76600
O1629       O  0.57002652  0.50788436  0.02667383    -0.86100
O1630       O  0.57403111  0.56933267  0.02842229    -0.85800
O1631       O  0.98988958  0.97676005  0.02613052    -0.72500
O1632       O  0.49351782  0.53502077  0.02730625    -0.84700
Zr1633     Zr  0.53277335  0.52231461  0.44659537     2.26400
Zr1634     Zr  0.52830269  0.96275721  0.99813205     2.06300
Zr1635     Zr  0.53592189  0.58175325  0.50165953     2.10000
Zr1636     Zr  0.61144998  0.55446215  0.00117019     1.78800
O1637       O  0.49020814  0.59805835  0.50097497    -0.93500
O1638       O  0.65023781  0.53078121  0.00020453    -0.41300
O1639       O  0.57451962  0.56790791  0.47385358    -0.77900
O1640       O  0.57100515  0.50932243  0.47227951    -0.96600
O1641       O  0.49090329  0.97550318  0.47090943    -0.89900
O1642       O  0.49469597  0.53667654  0.47316659    -0.92700
C1643       C  0.62442929  0.56002709  0.07232804     1.01000
C1644       C  0.53251354  0.59087631  0.07539961     1.13900
C1645       C  0.52658483  0.95206480  0.07088630     1.04700
O1646       O  0.57108600  0.94319682  0.99773300    -0.94900
O1647       O  0.53074508  0.94329361  0.44923651    -0.90600
O1648       O  0.52876588  0.97831895  0.41987410    -0.83800
C1649       C  0.52959959  0.95297838  0.42430805     1.11400
O1650       O  0.91431138  0.97384003  0.04079881    -0.96900
Zr1651     Zr  0.95317320  0.98985314  0.49824632     1.88900
O1652       O  0.97598813  0.49945063  0.42161447    -0.73500
O1653       O  0.97448640  0.90928479  0.49620866    -0.52800
O1654       O  0.91198342  0.93235573  0.49435518    -0.97500
O1655       O  0.91051259  0.50965340  0.49970266    -0.54700
O1656       O  0.92660446  0.97930973  0.45149374    -0.74000
C1657       C  0.94126589  0.98546982  0.42667821     0.98300
O1658       O  0.57896233  0.54001761  0.40868808    -0.62900
O1659       O  0.58779891  0.63625692  0.00286631    -0.57700
O1660       O  0.53670500  0.56632819  0.42255120    -0.94400
O1661       O  0.54012290  0.60372417  0.45425169    -0.92800
O1662       O  0.65630584  0.61131393  0.00295903    -0.93100
O1663       O  0.65141176  0.57217210  0.45925936    -0.91900
C1664       C  0.53913951  0.59307259  0.42870415     1.17100
H1665       H  0.58898199  0.58674148  0.04128461     0.33100
H1666       H  0.58552153  0.50420748  0.45938922     0.43900
H1667       H  0.98115813  0.54248531  0.46099644     0.37500
H1668       H  0.97394397  0.95962472  0.03858277     0.33900
H1669       H  0.67495569  0.54849648  0.00548031     0.25700
H1670       H  0.98465489  0.89496352  0.49671438     0.31700
H1671       H  0.88915016  0.92950843  0.48616014     0.37600
H1672       H  0.67972160  0.61276036  0.00800881     0.32000
H1673       H  0.57657267  0.64955614  0.00678259     0.30900
H1674       H  0.50383710  0.62092509  0.50651005     0.32600
H1675       H  0.88788342  0.49254190  0.49066446     0.31600
H1676       H  0.64562453  0.55245413  0.44851386     0.35600
H1677       H  0.59668845  0.56265758  0.41334248     0.28300
H1678       H  0.00524146  0.50679281  0.10941495     0.32500
H1679       H  0.88929625  0.95785648  0.03437154     0.35400
H1680       H  0.60098376  0.63797555  0.02040944     0.28000
H1681       H  0.59291291  0.52909935  0.41168256     0.40900
H1682       H  0.59354596  0.96000295  0.98820773     0.30900
H1683       H  0.64178505  0.51656670  0.01667198     0.38500
H1684       H  0.92085218  0.52723559  0.48605632     0.30400
H1685       H  0.96188255  0.90661426  0.01478832     0.30400
H1686       H  0.97129308  0.98558133  0.09012586     0.30700
Zr1687     Zr  0.53292061  0.52363562  0.30303194     2.17500
O1688       O  0.57355613  0.53894831  0.34325550    -0.51600
O1689       O  0.97522039  0.50107921  0.32841254    -0.74800
O1690       O  0.53464934  0.56678005  0.32958396    -0.81600
O1691       O  0.53327386  0.94559145  0.29545413    -0.83400
O1692       O  0.53754709  0.60394861  0.30046916    -0.79000
O1693       O  0.53244206  0.98112654  0.32721489    -0.90600
O1694       O  0.92604460  0.98121196  0.29983494    -0.76600
O1695       O  0.49901027  0.53613652  0.27584509    -0.86100
O1696       O  0.49189111  0.97645404  0.27778899    -0.85800
O1697       O  0.57612845  0.57014888  0.27778648    -0.72500
O1698       O  0.57263137  0.51159797  0.27528104    -0.84700
Zr1699     Zr  0.53398657  0.52423815  0.19719078     2.26400
Zr1700     Zr  0.53663279  0.58232982  0.25202067     2.06300
Zr1701     Zr  0.53095981  0.96493375  0.24818235     2.10000
Zr1702     Zr  0.95477823  0.99130544  0.25310238     1.78800
O1703       O  0.57913601  0.95143099  0.24558386    -0.93500
O1704       O  0.91427477  0.51324491  0.25314765    -0.41300
O1705       O  0.99190004  0.97801571  0.22290955    -0.77900
O1706       O  0.49408974  0.53645866  0.22458805    -0.96600
O1707       O  0.57070799  0.56577206  0.22604656    -0.89900
O1708       O  0.57225698  0.50983576  0.22037951    -0.92700
C1709       C  0.94050736  0.98728500  0.32432638     1.01000
C1710       C  0.53289185  0.95562044  0.32101756     1.13900
C1711       C  0.53638563  0.59322102  0.32534133     1.04700
O1712       O  0.49164207  0.59953091  0.25500357    -0.94900
O1713       O  0.53549339  0.60243753  0.20454049    -0.90600
O1714       O  0.53809917  0.56788767  0.17261406    -0.83800
C1715       C  0.53684644  0.59300083  0.17886331     1.11400
O1716       O  0.65060918  0.57340769  0.28889571    -0.96900
Zr1717     Zr  0.61257177  0.55666796  0.24685076     1.88900
O1718       O  0.59095205  0.54796344  0.17104221    -0.73500
O1719       O  0.58890150  0.63661926  0.25106523    -0.52800
O1720       O  0.65581484  0.61373893  0.24380834    -0.97500
O1721       O  0.65251794  0.53405072  0.24651066    -0.54700
O1722       O  0.64022671  0.56673124  0.19950797    -0.74000
C1723       C  0.62559786  0.56108437  0.17504104     0.98300
O1724       O  0.98830546  0.50644539  0.16024257    -0.62900
O1725       O  0.98167179  0.90935491  0.24857721    -0.57700
O1726       O  0.53164058  0.98101184  0.17014069    -0.94400
O1727       O  0.52713428  0.94316475  0.19944711    -0.92800
O1728       O  0.91240608  0.93406944  0.25592998    -0.93100
O1729       O  0.91559239  0.97094004  0.21176189    -0.91900
C1730       C  0.52878298  0.95410685  0.17455049     1.17100
H1731       H  0.97690119  0.95905086  0.29028775     0.33100
H1732       H  0.97958762  0.54146096  0.21268231     0.43900
H1733       H  0.58600736  0.50422165  0.20714552     0.37500
H1734       H  0.59171376  0.58736709  0.29059829     0.33900
H1735       H  0.88997447  0.49559939  0.25945230     0.25700
H1736       H  0.57835039  0.65003678  0.25689842     0.31700
H1737       H  0.67918736  0.61558437  0.23688038     0.37600
H1738       H  0.88820103  0.93179006  0.26078771     0.32000
H1739       H  0.99376094  0.89744751  0.25389689     0.30900
H1740       H  0.56689028  0.92899928  0.25158003     0.32600
H1741       H  0.67619841  0.55075978  0.23831689     0.31600
H1742       H  0.92150569  0.48999988  0.20086136     0.35600
H1743       H  0.97080767  0.98370885  0.16413246     0.28300
H1744       H  0.55833540  0.53908845  0.35951772     0.32500
H1745       H  0.67640095  0.58528795  0.28183260     0.35400
H1746       H  0.96608097  0.90779431  0.26522728     0.28000
H1747       H  0.97401060  0.51707212  0.16459214     0.40900
H1748       H  0.97416628  0.58756391  0.23961118     0.30900
H1749       H  0.92271513  0.52888511  0.26910404     0.38500
H1750       H  0.64242519  0.51687812  0.23186219     0.30400
H1751       H  0.60417090  0.63821939  0.26723604     0.30400
H1752       H  0.59239935  0.56161498  0.34043934     0.30700
C1753       C  0.70515527  0.60413829  0.12243617     0.02800
C1754       C  0.68546806  0.59337210  0.09695223    -0.13300
C1755       C  0.64799420  0.56996498  0.09749082     0.00300
C1756       C  0.63092811  0.55733772  0.12341553    -0.11900
C1757       C  0.64873272  0.57009401  0.14902602     0.02800
C1758       C  0.68634356  0.59295340  0.14855100    -0.11300
H1759       H  0.69909816  0.60365058  0.07702634     0.09000
H1760       H  0.60233791  0.53841019  0.12376140     0.05900
H1761       H  0.70074532  0.60247201  0.16828688     0.05800
C1762       C  0.50683147  0.63601715  0.13019539     0.02800
C1763       C  0.51387422  0.62600488  0.10350007    -0.13300
C1764       C  0.53166857  0.60833158  0.10173410     0.00300
C1765       C  0.54356024  0.60207150  0.12695911    -0.11900
C1766       C  0.53481418  0.60996401  0.15382513     0.02800
C1767       C  0.51794428  0.62834258  0.15520548    -0.11300
H1768       H  0.50349735  0.63026440  0.08445263     0.08400
H1769       H  0.55734534  0.58843174  0.12572574     0.05900
H1770       H  0.51145759  0.63504116  0.17567560     0.05800
C1771       C  0.91719172  0.74722955  0.13073197     0.02800
C1772       C  0.87885179  0.72778856  0.12756415    -0.13300
C1773       C  0.86172221  0.69442928  0.12906914     0.00300
C1774       C  0.88383454  0.68075186  0.13172976    -0.11900
C1775       C  0.92226807  0.69975637  0.13352126     0.02800
C1776       C  0.93833913  0.73292156  0.13465935    -0.11300
H1777       H  0.86256633  0.73852552  0.12318091     0.08400
H1778       H  0.87108247  0.65506259  0.13169562     0.05900
H1779       H  0.96773984  0.74778562  0.13770894     0.05800
C1780       C  0.99948175  0.88450951  0.12226709     0.02800
C1781       C  0.00661647  0.90056025  0.09641394    -0.13300
C1782       C  0.52450716  0.93387992  0.09630272     0.00300
C1783       C  0.53575079  0.95070175  0.12231061    -0.11900
C1784       C  0.52608895  0.93516631  0.14837687     0.02800
C1785       C  0.00906663  0.90197889  0.14815110    -0.11300
H1786       H  0.99643632  0.88709411  0.07678888     0.08400
H1787       H  0.54991560  0.97649083  0.12237561     0.05900
H1788       H  0.00150097  0.88958320  0.16804565     0.05800
C1789       C  0.96711213  0.79697236  0.10915365    -0.09500
C1790       C  0.93631417  0.78232777  0.12753863     0.06700
C1791       C  0.92611244  0.80172379  0.14334467    -0.03200
C1792       C  0.94639958  0.83472607  0.14051960    -0.07700
C1793       C  0.97772635  0.84931201  0.12282514     0.05800
C1794       C  0.98809035  0.83009585  0.10700331    -0.02700
Br1795     Br  0.53219420  0.84765025  0.08409693    -0.02400
H1796       H  0.97548896  0.78257291  0.09684547     0.09800
H1797       H  0.93813346  0.84922867  0.15283901     0.07800
Br1798     Br  0.88744563  0.78558353  0.17127176    -0.02800
C1799       C  0.49665352  0.67932205  0.11523990    -0.09500
C1800       C  0.98551820  0.65258387  0.13194277     0.06700
C1801       C  0.95349105  0.64150322  0.14909260    -0.03200
C1802       C  0.93438621  0.65797480  0.15016165    -0.07700
C1803       C  0.94537159  0.68471398  0.13338244     0.05800
C1804       C  0.97666723  0.69502016  0.11536736    -0.02700
Br1805     Br  0.49174628  0.72805246  0.08818732    -0.02400
H1806       H  0.52065526  0.68762711  0.10145995     0.09800
H1807       H  0.91013352  0.64925804  0.16370110     0.07800
Br1808     Br  0.93205859  0.60224443  0.16923009    -0.02800
C1809       C  0.75761321  0.65563149  0.13945193    -0.09500
C1810       C  0.74491681  0.62829685  0.12211554     0.06700
C1811       C  0.77062323  0.62365789  0.10621177    -0.03200
C1812       C  0.80814128  0.64629205  0.10775927    -0.07700
C1813       C  0.82117810  0.67321043  0.12589334     0.05800
C1814       C  0.79522287  0.67764458  0.14189194    -0.02700
Br1815     Br  0.80856032  0.71073302  0.16991714    -0.02400
H1816       H  0.73813530  0.65931818  0.15199452     0.09800
H1817       H  0.82739126  0.64222468  0.09532641     0.07800
Br1818     Br  0.75668918  0.58539355  0.08438695    -0.02800
C1819       C  0.75816618  0.89869735  0.39322731    -0.09500
C1820       C  0.74488115  0.87212466  0.37470431     0.06700
C1821       C  0.77035556  0.86811385  0.35772173    -0.03200
C1822       C  0.80797659  0.89069937  0.35915640    -0.07700
C1823       C  0.82097656  0.91777337  0.37695778     0.05800
C1824       C  0.79559838  0.92158560  0.39422617    -0.02700
Br1825     Br  0.80962538  0.95892320  0.41754570    -0.02400
H1826       H  0.73903117  0.90230672  0.40632188     0.09800
H1827       H  0.82716256  0.88745565  0.34578555     0.07800
Br1828     Br  0.75572515  0.83427002  0.33027385    -0.02800
C1829       C  0.57283395  0.86963667  0.35073127    -0.09500
C1830       C  0.58278301  0.89588386  0.36911987     0.06700
C1831       C  0.61496676  0.90777349  0.38519728    -0.03200
C1832       C  0.63435267  0.89162178  0.38471891    -0.07700
C1833       C  0.62371935  0.86467023  0.36709916     0.05800
C1834       C  0.59347238  0.85449614  0.34911154    -0.02700
Br1835     Br  0.58115469  0.82219640  0.32021647    -0.02400
H1836       H  0.54914489  0.86111884  0.33728931     0.09800
H1837       H  0.65820293  0.90045527  0.39803645     0.07800
Br1838     Br  0.63601144  0.94760369  0.40593162    -0.02800
C1839       C  0.59939512  0.74952984  0.39675521    -0.09500
C1840       C  0.62758866  0.76456669  0.37628725     0.06700
C1841       C  0.63458426  0.74556948  0.35703874    -0.03200
C1842       C  0.61454406  0.71250192  0.35900836    -0.07700
C1843       C  0.58597183  0.69727492  0.37909747     0.05800
C1844       C  0.57839928  0.71622779  0.39817779    -0.02700
Br1845     Br  0.53832211  0.69841621  0.42520404    -0.02400
H1846       H  0.59319377  0.76379486  0.41136948     0.09800
H1847       H  0.62101339  0.69855049  0.34423147     0.07800
Br1848     Br  0.66819326  0.76281056  0.32560474    -0.02800
C1849       C  0.56458883  0.66184132  0.87893654     0.02800
C1850       C  0.55867532  0.64511840  0.90427876    -0.13300
C1851       C  0.54113775  0.61180666  0.90373053     0.00300
C1852       C  0.52958322  0.59557609  0.87756693    -0.11900
C1853       C  0.53848384  0.61165554  0.85180233     0.02800
C1854       C  0.55450469  0.64480218  0.85271296    -0.11300
H1855       H  0.56953954  0.65803735  0.92402931     0.08400
H1856       H  0.51578590  0.56980247  0.87708108     0.05900
H1857       H  0.56095521  0.65745506  0.83301382     0.05800
C1858       C  0.56022948  0.91125682  0.87029918     0.02800
C1859       C  0.54906570  0.91835968  0.89669311    -0.13300
C1860       C  0.53133690  0.93605749  0.89792288     0.00300
C1861       C  0.52183294  0.94377097  0.87228801    -0.11900
C1862       C  0.53393262  0.93812859  0.84587735     0.02800
C1863       C  0.55248010  0.92114747  0.84499744    -0.11300
H1864       H  0.55637096  0.91197139  0.91616928     0.08400
H1865       H  0.50754425  0.95699762  0.87299166     0.05900
H1866       H  0.56307243  0.91750764  0.82494716     0.05800
C1867       C  0.64737366  0.79975654  0.87405217     0.02800
C1868       C  0.62707873  0.81504975  0.87136999    -0.13300
C1869       C  0.64494892  0.84809885  0.86794745     0.00300
C1870       C  0.68348470  0.86587885  0.86769802    -0.11900
C1871       C  0.70435768  0.85139626  0.87181803     0.02800
C1872       C  0.68610882  0.81816873  0.87497161    -0.11300
H1873       H  0.59726990  0.80115732  0.87212766     0.08400
H1874       H  0.69741508  0.89142095  0.86491371     0.05900
H1875       H  0.70182717  0.80672759  0.87868290     0.05800
C1876       C  0.86072822  0.94212829  0.87648487     0.02800
C1877       C  0.87951340  0.95412895  0.85045644    -0.13300
C1878       C  0.91705528  0.97750727  0.85020819     0.00300
C1879       C  0.93465544  0.98977935  0.87594516    -0.11900
C1880       C  0.91773914  0.97613128  0.90160205     0.02800
C1881       C  0.88049080  0.95233297  0.90193320    -0.11300
H1882       H  0.86518288  0.94491883  0.83065618     0.08400
H1883       H  0.96307751  0.50904625  0.87588972     0.05900
H1884       H  0.86708871  0.94131279  0.92170817     0.05800
Zr1885     Zr  0.53225808  0.52269027  0.55301822     2.17500
O1886       O  0.99080983  0.50793598  0.59387861    -0.51600
O1887       O  0.58967443  0.54569304  0.57730973    -0.74800
O1888       O  0.52878669  0.97873290  0.57662684    -0.81600
O1889       O  0.53265615  0.60108703  0.55043767    -0.83400
O1890       O  0.52550686  0.94107868  0.54547158    -0.79000
O1891       O  0.53256036  0.56518007  0.57986487    -0.90600
O1892       O  0.63903312  0.56628966  0.54752105    -0.76600
O1893       O  0.57002660  0.50788444  0.52667384    -0.86100
O1894       O  0.57403118  0.56933274  0.52842228    -0.85800
O1895       O  0.98988960  0.97676010  0.52613055    -0.72500
O1896       O  0.49351780  0.53502076  0.52730626    -0.84700
Zr1897     Zr  0.53277328  0.52231456  0.94659535     2.26400
Zr1898     Zr  0.52830269  0.96275725  0.49813203     2.06300
Zr1899     Zr  0.53592191  0.58175325  0.00165952     2.10000
Zr1900     Zr  0.61145007  0.55446222  0.50117020     1.78800
O1901       O  0.49020859  0.59805889  0.00097524    -0.93500
O1902       O  0.65023780  0.53078118  0.50020461    -0.41300
O1903       O  0.57451959  0.56790788  0.97385353    -0.77900
O1904       O  0.57100504  0.50932235  0.97227953    -0.96600
O1905       O  0.49090331  0.97550316  0.97090945    -0.89900
O1906       O  0.49469595  0.53667656  0.97316655    -0.92700
C1907       C  0.62442937  0.56002713  0.57232801     1.01000
C1908       C  0.53251354  0.59087636  0.57539959     1.13900
C1909       C  0.52658477  0.95206480  0.57088627     1.04700
O1910       O  0.57108561  0.94319644  0.49773310    -0.94900
O1911       O  0.53074497  0.94329358  0.94923649    -0.90600
O1912       O  0.52876589  0.97831897  0.91987406    -0.83800
C1913       C  0.52959956  0.95297838  0.92430802     1.11400
O1914       O  0.91431025  0.97383939  0.54079827    -0.96900
Zr1915     Zr  0.95317328  0.98985320  0.99824631     1.88900
O1916       O  0.97598809  0.49945066  0.92161444    -0.73500
O1917       O  0.97448665  0.90928463  0.99620850    -0.52800
O1918       O  0.91198282  0.93235591  0.99435491    -0.97500
O1919       O  0.91051214  0.50965295  0.99970263    -0.54700
O1920       O  0.92660448  0.97930975  0.95149373    -0.74000
C1921       C  0.94126589  0.98546981  0.92667820     0.98300
O1922       O  0.57896204  0.54001719  0.90868791    -0.62900
O1923       O  0.58779874  0.63625700  0.50286644    -0.57700
O1924       O  0.53670519  0.56632827  0.92255119    -0.94400
O1925       O  0.54012280  0.60372414  0.95425167    -0.92800
O1926       O  0.65630600  0.61131397  0.50295910    -0.93100
O1927       O  0.65141155  0.57217187  0.95925928    -0.91900
C1928       C  0.53913958  0.59307262  0.92870414     1.17100
H1929       H  0.58898204  0.58674156  0.54128461     0.33100
H1930       H  0.58552143  0.50420742  0.95938924     0.43900
H1931       H  0.98115791  0.54248528  0.96099642     0.37500
H1932       H  0.97394398  0.95962476  0.53858279     0.33900
H1933       H  0.67495569  0.54849645  0.50548040     0.25700
H1934       H  0.98465534  0.89496350  0.99671429     0.31700
H1935       H  0.88914952  0.92950891  0.98616021     0.37600
H1936       H  0.67972177  0.61276033  0.50800873     0.32000
H1937       H  0.57657242  0.64955616  0.50678271     0.30900
H1938       H  0.50383735  0.62092521  0.00651178     0.32600
H1939       H  0.88788300  0.49254130  0.99066452     0.31600
H1940       H  0.64562445  0.55245387  0.94851389     0.35600
H1941       H  0.59668812  0.56265724  0.91334205     0.28300
H1942       H  0.00524156  0.50679278  0.60941493     0.32500
H1943       H  0.88929530  0.95785581  0.53437065     0.35400
H1944       H  0.60098358  0.63797564  0.52040957     0.28000
H1945       H  0.59291278  0.52909909  0.91168251     0.40900
H1946       H  0.59354560  0.96000237  0.48820770     0.30900
H1947       H  0.64178500  0.51656667  0.51667206     0.38500
H1948       H  0.92085154  0.52723504  0.98605619     0.30400
H1949       H  0.96188244  0.90661452  0.51478853     0.30400
H1950       H  0.97129321  0.98558125  0.59012595     0.30700
Zr1951     Zr  0.53292053  0.52363554  0.80303188     2.17500
O1952       O  0.57355625  0.53894796  0.84325524    -0.51600
O1953       O  0.97522033  0.50107918  0.82841252    -0.74800
O1954       O  0.53464930  0.56677996  0.82958399    -0.81600
O1955       O  0.53327398  0.94559147  0.79545410    -0.83400
O1956       O  0.53754702  0.60394849  0.80046916    -0.79000
O1957       O  0.53244213  0.98112654  0.82721485    -0.90600
O1958       O  0.92604453  0.98121193  0.79983493    -0.76600
O1959       O  0.49901022  0.53613647  0.77584505    -0.86100
O1960       O  0.49189117  0.97645405  0.77778895    -0.85800
O1961       O  0.57612840  0.57014879  0.77778646    -0.72500
O1962       O  0.57263138  0.51159795  0.77528100    -0.84700
Zr1963     Zr  0.53398661  0.52423817  0.69719078     2.26400
Zr1964     Zr  0.53663278  0.58232979  0.75202066     2.06300
Zr1965     Zr  0.53095993  0.96493378  0.74818235     2.10000
Zr1966     Zr  0.95477822  0.99130544  0.75310238     1.78800
O1967       O  0.57913630  0.95143122  0.74558389    -0.93500
O1968       O  0.91427595  0.51324601  0.75314768    -0.41300
O1969       O  0.99190005  0.97801570  0.72290962    -0.77900
O1970       O  0.49408970  0.53645863  0.72458803    -0.96600
O1971       O  0.57070808  0.56577214  0.72604651    -0.89900
O1972       O  0.57225703  0.50983574  0.72037950    -0.92700
C1973       C  0.94050729  0.98728495  0.82432636     1.01000
C1974       C  0.53289194  0.95562045  0.82101753     1.13900
C1975       C  0.53638557  0.59322092  0.82534134     1.04700
O1976       O  0.49164243  0.59953129  0.75500377    -0.94900
O1977       O  0.53549333  0.60243749  0.70454048    -0.90600
O1978       O  0.53809924  0.56788769  0.67261406    -0.83800
C1979       C  0.53684643  0.59300083  0.67886330     1.11400
O1980       O  0.65060964  0.57340782  0.78889546    -0.96900
Zr1981     Zr  0.61257181  0.55666798  0.74685073     1.88900
O1982       O  0.59095202  0.54796342  0.67104215    -0.73500
O1983       O  0.58890169  0.63661915  0.75106558    -0.52800
O1984       O  0.65581448  0.61373902  0.74380847    -0.97500
O1985       O  0.65251893  0.53405164  0.74651040    -0.54700
O1986       O  0.64022664  0.56673122  0.69950792    -0.74000
C1987       C  0.62559781  0.56108436  0.67504099     0.98300
O1988       O  0.98830598  0.50644565  0.66024233    -0.62900
O1989       O  0.98167155  0.90935501  0.74857712    -0.57700
O1990       O  0.53164074  0.98101186  0.67014070    -0.94400
O1991       O  0.52713437  0.94316474  0.69944710    -0.92800
O1992       O  0.91240595  0.93406945  0.75592996    -0.93100
O1993       O  0.91559257  0.97094018  0.71176178    -0.91900
C1994       C  0.52878310  0.95410685  0.67455049     1.17100
H1995       H  0.97690118  0.95905090  0.79028780     0.33100
H1996       H  0.97958774  0.54146087  0.71268222     0.43900
H1997       H  0.58600743  0.50422163  0.70714553     0.37500
H1998       H  0.59171371  0.58736700  0.79059829     0.33900
H1999       H  0.88997528  0.49560055  0.75945174     0.25700
H2000       H  0.57835059  0.65003671  0.75689865     0.31700
H2001       H  0.67918702  0.61558463  0.73688032     0.37600
H2002       H  0.88820093  0.93179012  0.76078771     0.32000
H2003       H  0.99376067  0.89744745  0.75389642     0.30900
H2004       H  0.56689005  0.92899889  0.75157835     0.32600
H2005       H  0.67619898  0.55076067  0.73831604     0.31600
H2006       H  0.92150591  0.48999998  0.70086132     0.35600
H2007       H  0.97080707  0.98370806  0.66413326     0.28300
H2008       H  0.55833560  0.53908807  0.85951754     0.32500
H2009       H  0.67640135  0.58528827  0.78183224     0.35400
H2010       H  0.96608098  0.90779432  0.76522738     0.28000
H2011       H  0.97401101  0.51707227  0.66459196     0.40900
H2012       H  0.97416591  0.58756344  0.73961133     0.30900
H2013       H  0.92271610  0.52888569  0.76910448     0.38500
H2014       H  0.64242588  0.51687862  0.73186233     0.30400
H2015       H  0.60417081  0.63821916  0.76723654     0.30400
H2016       H  0.59239946  0.56161464  0.84043911     0.30700
C2017       C  0.70515529  0.60413824  0.62243617     0.02800
C2018       C  0.68546811  0.59337207  0.59695223    -0.13300
C2019       C  0.64799425  0.56996499  0.59749080     0.00300
C2020       C  0.63092811  0.55733775  0.62341549    -0.11900
C2021       C  0.64873270  0.57009401  0.64902599     0.02800
C2022       C  0.68634354  0.59295337  0.64855100    -0.11300
H2023       H  0.69909824  0.60365053  0.57702634     0.09000
H2024       H  0.60233789  0.53841025  0.62376134     0.05900
H2025       H  0.70074530  0.60247198  0.66828689     0.05800
C2026       C  0.50683137  0.63601709  0.63019542     0.02800
C2027       C  0.51387415  0.62600486  0.60350009    -0.13300
C2028       C  0.53166854  0.60833160  0.60173409     0.00300
C2029       C  0.54356021  0.60207151  0.62695909    -0.11900
C2030       C  0.53481415  0.60996399  0.65382513     0.02800
C2031       C  0.51794422  0.62834254  0.65520549    -0.11300
H2032       H  0.50349728  0.63026439  0.58445266     0.08400
H2033       H  0.55734534  0.58843177  0.62572572     0.05900
H2034       H  0.51145753  0.63504111  0.67567562     0.05800
C2035       C  0.91719168  0.74722955  0.63073189     0.02800
C2036       C  0.87885178  0.72778858  0.62756404    -0.13300
C2037       C  0.86172221  0.69442930  0.62906902     0.00300
C2038       C  0.88383452  0.68075186  0.63172967    -0.11900
C2039       C  0.92226804  0.69975637  0.63352118     0.02800
C2040       C  0.93833909  0.73292156  0.63465928    -0.11300
H2041       H  0.86256633  0.73852554  0.62318074     0.08400
H2042       H  0.87108243  0.65506259  0.63169561     0.05900
H2043       H  0.96773979  0.74778564  0.63770886     0.05800
C2044       C  0.99948168  0.88450951  0.62226708     0.02800
C2045       C  0.00661642  0.90056026  0.59641394    -0.13300
C2046       C  0.52450709  0.93387990  0.59630269     0.00300
C2047       C  0.53575076  0.95070174  0.62231058    -0.11900
C2048       C  0.52608900  0.93516630  0.64837685     0.02800
C2049       C  0.00906657  0.90197888  0.64815110    -0.11300
H2050       H  0.99643623  0.88709412  0.57678887     0.08400
H2051       H  0.54991555  0.97649081  0.62237558     0.05900
H2052       H  0.00150089  0.88958318  0.66804564     0.05800
C2053       C  0.96711210  0.79697239  0.60915364    -0.09500
C2054       C  0.93631412  0.78232778  0.62753859     0.06700
C2055       C  0.92611240  0.80172377  0.64334467    -0.03200
C2056       C  0.94639952  0.83472605  0.64051959    -0.07700
C2057       C  0.97772628  0.84931201  0.62282513     0.05800
C2058       C  0.98809029  0.83009588  0.60700330    -0.02700
Br2059     Br  0.53219413  0.84765022  0.58409679    -0.02400
H2060       H  0.97548891  0.78257296  0.59684542     0.09800
H2061       H  0.93813340  0.84922865  0.65283901     0.07800
Br2062     Br  0.88744561  0.78558351  0.67127177    -0.02800
C2063       C  0.49665343  0.67932199  0.61523998    -0.09500
C2064       C  0.98551825  0.65258393  0.63194274     0.06700
C2065       C  0.95349103  0.64150323  0.64909250    -0.03200
C2066       C  0.93438616  0.65797477  0.65016153    -0.07700
C2067       C  0.94537158  0.68471399  0.63338235     0.05800
C2068       C  0.97666727  0.69502021  0.61536731    -0.02700
Br2069     Br  0.49174612  0.72805230  0.58818731    -0.02400
H2070       H  0.52065514  0.68762704  0.60146001     0.09800
H2071       H  0.91013343  0.64925797  0.66370094     0.07800
Br2072     Br  0.93205854  0.60224440  0.66922995    -0.02800
C2073       C  0.75761324  0.65563143  0.63945193    -0.09500
C2074       C  0.74491683  0.62829679  0.62211554     0.06700
C2075       C  0.77062324  0.62365787  0.60621170    -0.03200
C2076       C  0.80814128  0.64629207  0.60775915    -0.07700
C2077       C  0.82117810  0.67321045  0.62589322     0.05800
C2078       C  0.79522290  0.67764457  0.64189187    -0.02700
Br2079     Br  0.80856041  0.71073302  0.66991706    -0.02400
H2080       H  0.73813535  0.65931811  0.65199456     0.09800
H2081       H  0.82739126  0.64222474  0.59532623     0.07800
Br2082     Br  0.75668919  0.58539357  0.58438682    -0.02800
C2083       C  0.75816616  0.89869730  0.89322737    -0.09500
C2084       C  0.74488115  0.87212462  0.87470435     0.06700
C2085       C  0.77035556  0.86811385  0.85772176    -0.03200
C2086       C  0.80797657  0.89069938  0.85915646    -0.07700
C2087       C  0.82097652  0.91777339  0.87695783     0.05800
C2088       C  0.79559834  0.92158559  0.89422622    -0.02700
Br2089     Br  0.80962523  0.95892319  0.91754571    -0.02400
H2090       H  0.73903113  0.90230663  0.90632193     0.09800
H2091       H  0.82716256  0.88745570  0.84578560     0.07800
Br2092     Br  0.75572516  0.83427011  0.83027379    -0.02800
C2093       C  0.57283403  0.86963666  0.85073132    -0.09500
C2094       C  0.58278306  0.89588386  0.86911991     0.06700
C2095       C  0.61496681  0.90777350  0.88519733    -0.03200
C2096       C  0.63435273  0.89162179  0.88471899    -0.07700
C2097       C  0.62371942  0.86467024  0.86709924     0.05800
C2098       C  0.59347247  0.85449615  0.84911160    -0.02700
Br2099     Br  0.58115486  0.82219643  0.82021652    -0.02400
H2100       H  0.54914499  0.86111883  0.83728933     0.09800
H2101       H  0.65820300  0.90045529  0.89803652     0.07800
Br2102     Br  0.63601144  0.94760369  0.90593168    -0.02800
C2103       C  0.59939519  0.74952983  0.89675515    -0.09500
C2104       C  0.62758870  0.76456668  0.87628717     0.06700
C2105       C  0.63458427  0.74556946  0.85703864    -0.03200
C2106       C  0.61454406  0.71250190  0.85900826    -0.07700
C2107       C  0.58597187  0.69727491  0.87909740     0.05800
C2108       C  0.57839934  0.71622778  0.89817773    -0.02700
Br2109     Br  0.53832218  0.69841621  0.92520399    -0.02400
H2110       H  0.59319385  0.76379485  0.91136943     0.09800
H2111       H  0.62101338  0.69855047  0.84423137     0.07800
Br2112     Br  0.66819321  0.76281055  0.82560460    -0.02800
loop_ 
_geom_bond_atom_site_label_1 
_geom_bond_atom_site_label_2 
_geom_bond_distance 
_geom_bond_site_symmetry_2 
_ccdc_geom_bond_type 
C1            C2   1.415       .  A
C1            C6   1.419       .  A
C1          C259   1.488       .  S
C2            C3   1.401       .  A
C2            H7   1.083       .  S
C3            C4   1.405       .  A
C3           C80   1.490       .  S
C4            C5   1.405       .  A
C4            H8   1.083       .  S
C5            C6   1.399       .  A
C5          C127   1.495       .  S
C6            H9   1.083       .  S
C10          C11   1.415       .  A
C10          C15   1.411       .  A
C10         C246   1.481       .  S
C11          C12   1.401       .  A
C11          H16   1.083       .  S
C12          C13   1.408       .  A
C12          C65   1.494       .  S
C13          C14   1.407       .  A
C13          H17   1.084       .  S
C14          C15   1.399       .  A
C14         C126   1.489       .  S
C15          H18   1.084       .  S
C19          C20   1.404       .  A
C19          C24   1.410       .  A
C19         C256   1.484       .  S
C20          C21   1.402       .  A
C20          H25   1.083       .  S
C21          C22   1.400       .  A
C21         C249   1.484       .  S
C22          C23   1.402       .  A
C22          H26   1.084       .  S
C23          C24   1.407       .  A
C23         C236   1.486       .  S
C24          H27   1.083       .  S
C28          C29   1.414       .  A
C28          C33   1.410       .  A
C28         C239   1.482       .  S
C29          C30   1.404       .  A
C29          H34   1.083       .  S
C30          C31   1.394       .  A
C30         C125   1.479       .  S
C31          C32   1.393       .  A
C31         H563   1.083       .  S
C32          C33   1.400       .  A
C32          C73   1.474       .  S
C33          H36   1.083       .  S
H35         C559   1.083   1_545  S
Zr37         O39   2.401       .  S
Zr37         O43   2.390       .  S
Zr37        O568   2.386   1_545  S
Zr37         O45   2.369       .  S
Zr37         O46   2.366       .  S
Zr37         O48   2.384   1_455  S
Zr37       O1631   2.388   1_445  S
Zr37       O1094   2.432   1_455  S
O38       Zr1093   2.432       .  S
O38          H94   0.989       .  S
O38         H630   0.990   1_545  S
O39          C59   1.281       .  A
O40        Zr565   2.386       .  S
O40          C61   1.277       .  A
O41        Zr315   2.490       .  S
O41          C60   1.294       .  A
O42         Zr50   2.480   1_554  S
O42          C61   1.292       .  A
O43          C60   1.279       .  A
O44         Zr52   2.424       .  S
O44          C59   1.279       .  A
O45         Zr52   2.383       .  S
O45        Zr578   2.402   1_544  S
O46         Zr52   2.380       .  S
O46        Zr315   2.392       .  S
O46          H81   0.966       .  S
O47       Zr1621   2.388       .  S
O47       Zr1106   2.406   1_554  S
O47        Zr331   2.394   1_554  S
O47          H84   0.966       .  S
O48        Zr315   2.401   1_655  S
O48       Zr1915   2.401   1_544  S
Zr49         O76   2.390       .  S
Zr49       O1124   2.397   1_445  S
Zr49        O592   2.387   1_545  S
Zr49         O55   2.381       .  S
Zr49         O56   2.385       .  S
Zr49         O58   2.371   1_455  S
Zr49        O585   2.366   1_445  S
Zr49         O74   2.436       .  S
Zr50        O327   2.490       .  S
Zr50        O573   2.402   1_556  S
Zr50       O1103   2.406   1_456  S
Zr50        O848   2.404       .  S
Zr50        O321   2.389   1_455  S
Zr50         O62   2.434       .  S
Zr50       O1389   2.436   1_455  S
Zr51         O77   2.478       .  S
Zr51        O305   2.490       .  S
Zr51         O55   2.403       .  S
Zr51         O58   2.393   1_455  S
Zr51        O310   2.392       .  S
Zr51        O312   2.401   1_455  S
Zr51         O53   2.434   1_455  S
Zr51        O339   2.436       .  S
Zr52        O319   2.397   1_554  S
Zr52        O320   2.397   1_554  S
Zr52         O78   2.435       .  S
Zr52         O54   2.437       .  S
Zr52        O343   2.438   1_554  S
O53          H90   0.990   1_655  S
O54          H85   0.990       .  S
O54          H99   0.990       .  S
O55        Zr316   2.397       .  S
O56        Zr842   2.404   1_545  S
O56        Zr316   2.397       .  S
O56          H82   0.966       .  S
O57        Zr577   2.366   1_655  S
O57        Zr314   2.389   1_655  S
O57       Zr1123   2.377       .  S
O58       Zr1651   2.381   1_545  S
O58        H1139   0.966       .  S
C59         C171   1.477       .  S
C60         C180   1.495       .  S
C61         C198   1.491       .  S
O62          H98   0.990       .  S
O63        Zr314   2.490       .  S
O63          C65   1.295       .  A
O64        Zr577   2.387       .  S
O64          C65   1.279       .  A
O66        Zr331   2.438   1_554  S
O66          H95   0.990       .  S
Zr67         O72   2.428       .  S
Zr67        O311   2.394       .  S
Zr67       O1896   2.401       .  S
Zr67       O1113   2.377       .  S
Zr67       O1642   2.381       .  S
Zr67         O70   2.438       .  S
Zr67        O330   2.438       .  S
Zr67        O599   2.438       .  S
O68       Zr1105   2.397   1_565  S
O68         C601   1.281       .  A
O69       Zr1370   2.436       .  S
O69          H86   0.990       .  S
O69         H365   0.990       .  S
O70          H87   0.990       .  S
O71        Zr595   2.438   1_545  S
O71          H91   0.990   1_545  S
O71         H100   0.990       .  S
O72          C73   1.280       .  A
C73         O596   1.281       .  A
O74          H93   0.990       .  S
O74          H97   0.990       .  S
O75        Zr315   2.436       .  S
O75          H89   0.990       .  S
O75          H96   0.990       .  S
O76          C80   1.280       .  A
O77          C80   1.293       .  A
O78          H88   0.990       .  S
O79        Zr316   2.438       .  S
O79          H92   0.990       .  S
H83        O1114   0.966       .  S
H101        O333   0.990   1_554  S
H102        O566   0.990       .  S
Zr103       O106   2.385       .  S
Zr103      O1161   2.400   1_455  S
Zr103       O637   2.391   1_545  S
Zr103       O113   2.393       .  S
Zr103       O114   2.387       .  S
Zr103       O640   2.368   1_445  S
Zr103       O104   2.432       .  S
Zr103       O111   2.263   1_455  S
O104        H160   0.989       .  S
O104        H168   0.990       .  S
O105      Zr1159   2.400       .  S
O105        C653   1.281   1_545  A
O106        C127   1.276       .  A
O107       Zr117   2.477       .  S
O107        C126   1.292       .  A
O108       Zr116   2.483       .  S
O108        C127   1.292       .  A
O109       Zr631   2.391       .  S
O109        C126   1.279       .  A
O110       Zr118   2.428       .  S
O110        C125   1.279       .  A
O111       Zr116   2.298   1_655  S
O111      Zr1702   2.288   1_545  S
O112       Zr117   2.398   1_655  S
O112       Zr631   2.368   1_655  S
O112      Zr1174   2.379       .  S
O112       H1203   0.966       .  S
O113       Zr116   2.407       .  S
O113       Zr133   2.402       .  S
O113        H150   0.966       .  S
O114       Zr133   2.400       .  S
O114       Zr645   2.405   1_545  S
Zr115       O134   2.393       .  S
Zr115       O130   2.385       .  S
Zr115       O670   2.390   1_545  S
Zr115       O122   2.390   1_455  S
Zr115       O124   2.370       .  S
Zr115      O1705   2.385   1_445  S
Zr115      O1196   2.433   1_455  S
Zr115       O123   2.262       .  S
Zr116       O129   2.490       .  S
Zr116       O122   2.402   1_455  S
Zr116       O135   2.436       .  S
Zr116       O128   2.435   1_455  S
Zr116       O123   2.290       .  S
Zr117       O143   2.480       .  S
Zr117       O642   2.405       .  S
Zr117      O1177   2.407   1_455  S
Zr117       O652   2.392       .  S
Zr117       O119   2.435       .  S
Zr117      O1197   2.436   1_455  S
Zr118       O121   2.399       .  S
Zr118      O1168   2.379       .  S
Zr118      O1706   2.399       .  S
Zr118       O144   2.436       .  S
Zr118       O145   2.436       .  S
Zr118       O648   2.436       .  S
Zr118      O1695   2.288       .  S
O119        H156   0.990       .  S
O120       Zr646   2.436   1_545  S
O120        H151   0.990   1_545  S
O120        H165   0.990       .  S
O121      Zr1699   2.385       .  S
O121      Zr1173   2.407       .  S
O122      Zr1702   2.399   1_545  S
O122       H1204   0.966       .  S
O123       Zr133   2.284       .  S
O124       Zr133   2.380       .  S
O124       Zr645   2.392   1_545  S
O124        H149   0.966       .  S
C125        O633   1.281       .  A
O128       H1220   0.990       .  S
O129        C131   1.294       .  A
O130        C131   1.278       .  A
C131        C182   1.495       .  S
O132       Zr133   2.438       .  S
O132        H161   0.990       .  S
Zr133       O138   2.438       .  S
Zr133       O136   2.437       .  S
Zr133       O137   2.440       .  S
O134        C139   1.280       .  A
O135        H152   0.990       .  S
O135        H167   0.990       .  S
O136        H153   0.990       .  S
O137        H157   0.990       .  S
O137        H166   0.990       .  S
O138        C139   1.282       .  A
C139        C173   1.478       .  S
O140      Zr1171   2.433       .  S
O140        H163   0.990       .  S
O140        H687   0.990   1_545  S
O141      Zr1173   2.436       .  S
O141        H155   0.990       .  S
O141        H162   0.990       .  S
O142       Zr643   2.390       .  S
O142        C146   1.279       .  A
O143        C146   1.293       .  A
O144        H154   0.990       .  S
O145        H686   0.990       .  S
C146        C200   1.492       .  S
H147       O1168   0.966       .  S
H148       O1178   0.966       .  S
H158        O673   0.990       .  S
H159        O668   0.990       .  S
H164       O1184   0.990       .  S
C169        C170   1.411       .  A
C169        C174   1.413       .  A
C169        C226   1.480       .  S
C170        C171   1.402       .  A
C170        H175   1.083       .  S
C171        C172   1.394       .  A
C172        C173   1.395       .  A
C172        H176   1.083       .  S
C173        C174   1.400       .  A
C174        H177   1.083       .  S
C178        C179   1.416       .  A
C178        C183   1.414       .  A
C178       C1272   1.484   1_455  S
C179        C180   1.402       .  A
C179        H184   1.084       .  S
C180        C181   1.408       .  A
C181        C182   1.408       .  A
C181        H185   1.084       .  S
C182        C183   1.400       .  A
C183        H186   1.083       .  S
C187        C188   1.408       .  A
C187        C192   1.404       .  A
C187        C206   1.486       .  S
C188        C189   1.408       .  A
C188        H193   1.083       .  S
C189        C190   1.407       .  A
C189        C229   1.491       .  S
C190        C191   1.403       .  A
C190        H194   1.083       .  S
C191        C192   1.400       .  A
C191        C219   1.489       .  S
C192        H195   1.083       .  S
C196        C197   1.413       .  A
C196        C201   1.414       .  A
C196        C209   1.479       .  S
C197       C1254   1.401       .  A
C197        H202   1.083       .  S
C198        C199   1.408       .  A
C198       C1253   1.401       .  A
C199        C200   1.405       .  A
C199        H203   1.084       .  S
C200       C1257   1.397       .  A
C201       C1256   1.397       .  A
C201        H204   1.084       .  S
C205        C206   1.408       .  A
C205        C210   1.398       .  A
C205        H212   1.082       .  S
C206        C207   1.411       .  A
C207        C208   1.395       .  A
C207       Br214   1.912       .  S
C208        C209   1.403       .  A
C208        H213   1.084       .  S
C209        C210   1.408       .  A
C210      Br1267   1.920       .  S
Br211      C1266   1.920   1_455  S
C215       C1272   1.402       .  A
C215       C1276   1.399       .  A
C215        H222   1.084   1_655  S
C216        C217   1.413       .  A
C216       C1271   1.402       .  A
C216       C1234   1.484       .  S
C217        C218   1.398       .  A
C217       Br224   1.922       .  S
C218        C219   1.405       .  A
C218        H223   1.083       .  S
C219        C220   1.417       .  A
C220       C1271   1.399       .  A
C220      Br1277   1.922       .  S
Br221      C1276   1.922       .  S
C225        C226   1.402       .  A
C225        C230   1.397       .  A
C225        H232   1.084       .  S
C226        C227   1.409       .  A
C227        C228   1.397       .  A
C227       Br234   1.921       .  S
C228        C229   1.408       .  A
C228        H233   1.083       .  S
C229        C230   1.414       .  A
C230       Br231   1.913       .  S
C235        C236   1.406       .  A
C235        C240   1.396       .  A
C235        H242   1.084       .  S
C236        C237   1.411       .  A
C237        C238   1.400       .  A
C237       Br244   1.914       .  S
C238        C239   1.404       .  A
C238        H243   1.083       .  S
C239        C240   1.410       .  A
C240       Br241   1.922       .  S
C245        C246   1.405       .  A
C245        C250   1.399       .  A
C245        H252   1.083       .  S
C246        C247   1.411       .  A
C247        C248   1.395       .  A
C247       Br254   1.923       .  S
C248        C249   1.405       .  A
C248        H253   1.083       .  S
C249        C250   1.411       .  A
C250       Br251   1.920       .  S
C255        C256   1.406       .  A
C255        C260   1.402       .  A
C255        H262   1.084       .  S
C256        C257   1.408       .  A
C257        C258   1.393       .  A
C257       Br264   1.915       .  S
C258        C259   1.404       .  A
C258        H263   1.083       .  S
C259        C260   1.415       .  A
C260       Br261   1.922       .  S
C265        C266   1.415       .  A
C265        C270   1.419       .  A
C265        C523   1.488       .  S
C266        C267   1.401       .  A
C266        H271   1.083       .  S
C267        C268   1.405       .  A
C267        C344   1.490       .  S
C268        C269   1.405       .  A
C268        H272   1.083       .  S
C269        C270   1.399       .  A
C269        C391   1.495       .  S
C270        H273   1.083       .  S
C274        C275   1.415       .  A
C274        C279   1.411       .  A
C274        C510   1.481       .  S
C275        C276   1.401       .  A
C275        H280   1.083       .  S
C276        C277   1.408       .  A
C276        C329   1.494       .  S
C277        C278   1.407       .  A
C277        H281   1.084       .  S
C278        C279   1.399       .  A
C278        C390   1.489       .  S
C279        H282   1.084       .  S
C283        C284   1.404       .  A
C283        C288   1.410       .  A
C283        C520   1.484       .  S
C284        C285   1.402       .  A
C284        H289   1.083       .  S
C285        C286   1.400       .  A
C285        C513   1.484       .  S
C286        C287   1.402       .  A
C286        H290   1.084       .  S
C287        C288   1.407       .  A
C287        C500   1.486       .  S
C288        H291   1.083       .  S
C292        C293   1.414       .  A
C292        C297   1.410       .  A
C292        C503   1.482       .  S
C293        C294   1.404       .  A
C293        H298   1.083       .  S
C294        C295   1.394       .  A
C294        C389   1.479       .  S
C295        C296   1.393       .  A
C295        H827   1.083       .  S
C296        C297   1.400       .  A
C296        C337   1.474       .  S
C297        H300   1.083       .  S
H299        C823   1.083   1_545  S
Zr301       O303   2.401       .  S
Zr301       O832   2.386   1_545  S
Zr301       O307   2.390       .  S
Zr301       O309   2.369       .  S
Zr301       O310   2.366       .  S
Zr301      O1895   2.388   1_445  S
Zr301       O312   2.384   1_455  S
Zr301      O1358   2.432   1_455  S
O302      Zr1357   2.432       .  S
O302        H358   0.989       .  S
O302        H894   0.990   1_545  S
O303        C323   1.281       .  A
O304       Zr829   2.386       .  S
O304        C325   1.277       .  A
O305        C324   1.294       .  A
O306       Zr314   2.480       .  S
O306        C325   1.292       .  A
O307        C324   1.279       .  A
O308       Zr316   2.424       .  S
O308        C323   1.279       .  A
O309       Zr842   2.402   1_545  S
O309       Zr316   2.383       .  S
O310       Zr316   2.380       .  S
O310        H345   0.966       .  S
O311      Zr1885   2.388       .  S
O311      Zr1370   2.406       .  S
O311        H348   0.966       .  S
O312      Zr1651   2.401   1_545  S
Zr313      O1388   2.397   1_445  S
Zr313       O340   2.390       .  S
Zr313       O856   2.387   1_545  S
Zr313       O319   2.381       .  S
Zr313       O320   2.385       .  S
Zr313       O849   2.366   1_445  S
Zr313       O322   2.371   1_455  S
Zr313       O338   2.436       .  S
Zr314       O837   2.402       .  S
Zr314      O1367   2.406   1_455  S
Zr314       O584   2.404       .  S
Zr314      O1125   2.436   1_455  S
Zr314       O326   2.434       .  S
Zr315       O341   2.478   1_554  S
Zr315       O319   2.403   1_554  S
Zr315       O322   2.393   1_454  S
Zr315       O317   2.434   1_455  S
Zr316       O342   2.435       .  S
Zr316       O318   2.437       .  S
O317        H354   0.990   1_655  S
O318        H349   0.990       .  S
O318        H363   0.990       .  S
O320       Zr578   2.404   1_545  S
O320        H346   0.966       .  S
O321       Zr841   2.366   1_655  S
O321      Zr1387   2.377       .  S
O322      Zr1915   2.381   1_545  S
O322       H1403   0.966       .  S
C323        C435   1.477       .  S
C324        C444   1.495       .  S
C325        C462   1.491       .  S
O326        H362   0.990       .  S
O327        C329   1.295       .  A
O328       Zr841   2.387       .  S
O328        C329   1.279       .  A
O330        H359   0.990       .  S
Zr331       O336   2.428       .  S
Zr331      O1632   2.401   1_556  S
Zr331      O1377   2.377       .  S
Zr331      O1906   2.381       .  S
Zr331       O334   2.438       .  S
Zr331       O863   2.438       .  S
O332      Zr1369   2.397   1_565  S
O332        C865   1.281       .  A
O333      Zr1106   2.436       .  S
O333        H350   0.990       .  S
O334        H351   0.990       .  S
O335       Zr859   2.438   1_545  S
O335        H355   0.990   1_545  S
O335        H364   0.990       .  S
O336        C337   1.280       .  A
C337        O860   1.281       .  A
O338        H357   0.990       .  S
O338        H361   0.990       .  S
O339        H353   0.990       .  S
O339        H360   0.990       .  S
O340        C344   1.280       .  A
O341        C344   1.293       .  A
O342        H352   0.990       .  S
O343        H356   0.990       .  S
H347       O1378   0.966       .  S
H366        O830   0.990       .  S
Zr367      O1425   2.400   1_455  S
Zr367       O370   2.385       .  S
Zr367       O901   2.391   1_545  S
Zr367       O904   2.368   1_445  S
Zr367       O377   2.393       .  S
Zr367       O378   2.387       .  S
Zr367       O368   2.432       .  S
Zr367       O375   2.263   1_455  S
O368        H424   0.989       .  S
O368        H432   0.990       .  S
O369      Zr1423   2.400       .  S
O369        C917   1.281   1_545  A
O370        C391   1.276       .  A
O371       Zr381   2.477       .  S
O371        C390   1.292       .  A
O372       Zr380   2.483       .  S
O372        C391   1.292       .  A
O373       Zr895   2.391       .  S
O373        C390   1.279       .  A
O374       Zr382   2.428       .  S
O374        C389   1.279       .  A
O375       Zr380   2.298   1_655  S
O375      Zr1966   2.288   1_545  S
O376       Zr895   2.368   1_655  S
O376       Zr381   2.398   1_655  S
O376      Zr1438   2.379       .  S
O376       H1467   0.966       .  S
O377       Zr380   2.407       .  S
O377       Zr397   2.402       .  S
O377        H414   0.966       .  S
O378       Zr909   2.405   1_545  S
O378       Zr397   2.400       .  S
Zr379       O398   2.393       .  S
Zr379       O934   2.390   1_545  S
Zr379       O394   2.385       .  S
Zr379      O1969   2.385   1_445  S
Zr379       O386   2.390   1_455  S
Zr379       O388   2.370       .  S
Zr379      O1460   2.433   1_455  S
Zr379       O387   2.262       .  S
Zr380       O393   2.490       .  S
Zr380       O386   2.402   1_455  S
Zr380       O399   2.436       .  S
Zr380       O392   2.435   1_455  S
Zr380       O387   2.290       .  S
Zr381       O407   2.480       .  S
Zr381       O906   2.405       .  S
Zr381      O1441   2.407   1_455  S
Zr381       O916   2.392       .  S
Zr381       O383   2.435       .  S
Zr381      O1461   2.436   1_455  S
Zr382      O1432   2.379       .  S
Zr382       O385   2.399       .  S
Zr382      O1970   2.399       .  S
Zr382       O408   2.436       .  S
Zr382       O409   2.436       .  S
Zr382       O912   2.436       .  S
Zr382      O1959   2.288       .  S
O383        H420   0.990       .  S
O384       Zr910   2.436   1_545  S
O384        H415   0.990   1_545  S
O384        H429   0.990       .  S
O385      Zr1963   2.385       .  S
O385      Zr1437   2.407       .  S
O386      Zr1966   2.399   1_545  S
O386       H1468   0.966       .  S
O387       Zr397   2.284       .  S
O388       Zr909   2.392   1_545  S
O388       Zr397   2.380       .  S
O388        H413   0.966       .  S
C389        O897   1.281       .  A
O392       H1484   0.990       .  S
O393        C395   1.294       .  A
O394        C395   1.278       .  A
C395        C446   1.495       .  S
O396       Zr397   2.438       .  S
O396        H425   0.990       .  S
Zr397       O402   2.438       .  S
Zr397       O400   2.437       .  S
Zr397       O401   2.440       .  S
O398        C403   1.280       .  A
O399        H416   0.990       .  S
O399        H431   0.990       .  S
O400        H417   0.990       .  S
O401        H421   0.990       .  S
O401        H430   0.990       .  S
O402        C403   1.282       .  A
C403        C437   1.478       .  S
O404      Zr1435   2.433       .  S
O404        H951   0.990   1_545  S
O404        H427   0.990       .  S
O405      Zr1437   2.436       .  S
O405        H419   0.990       .  S
O405        H426   0.990       .  S
O406       Zr907   2.390       .  S
O406        C410   1.279       .  A
O407        C410   1.293       .  A
O408        H418   0.990       .  S
O409        H950   0.990       .  S
C410        C464   1.492       .  S
H411       O1432   0.966       .  S
H412       O1442   0.966       .  S
H422        O937   0.990       .  S
H423        O932   0.990       .  S
H428       O1448   0.990       .  S
C433        C434   1.411       .  A
C433        C438   1.413       .  A
C433        C490   1.480       .  S
C434        C435   1.402       .  A
C434        H439   1.083       .  S
C435        C436   1.394       .  A
C436        C437   1.395       .  A
C436        H440   1.083       .  S
C437        C438   1.400       .  A
C438        H441   1.083       .  S
C442        C443   1.416       .  A
C442        C447   1.414       .  A
C442       C1536   1.484   1_455  S
C443        C444   1.402       .  A
C443        H448   1.084       .  S
C444        C445   1.408       .  A
C445        C446   1.408       .  A
C445        H449   1.084       .  S
C446        C447   1.400       .  A
C447        H450   1.083       .  S
C451        C452   1.408       .  A
C451        C456   1.404       .  A
C451        C470   1.486       .  S
C452        C453   1.408       .  A
C452        H457   1.083       .  S
C453        C454   1.407       .  A
C453        C493   1.491       .  S
C454        C455   1.403       .  A
C454        H458   1.083       .  S
C455        C456   1.400       .  A
C455        C483   1.489       .  S
C456        H459   1.083       .  S
C460        C461   1.413       .  A
C460        C465   1.414       .  A
C460        C473   1.479       .  S
C461       C1518   1.401       .  A
C461        H466   1.083       .  S
C462       C1517   1.401       .  A
C462        C463   1.408       .  A
C463        C464   1.405       .  A
C463        H467   1.084       .  S
C464       C1521   1.397       .  A
C465       C1520   1.397       .  A
C465        H468   1.084       .  S
C469        C470   1.408       .  A
C469        C474   1.398       .  A
C469        H476   1.082       .  S
C470        C471   1.411       .  A
C471        C472   1.395       .  A
C471       Br478   1.912       .  S
C472        C473   1.403       .  A
C472        H477   1.084       .  S
C473        C474   1.408       .  A
C474      Br1531   1.920       .  S
Br475      C1530   1.920   1_455  S
C479       C1536   1.402       .  A
C479       C1540   1.399       .  A
C479        H486   1.084   1_655  S
C480       C1535   1.402       .  A
C480        C481   1.413       .  A
C480       C1498   1.484       .  S
C481        C482   1.398       .  A
C481       Br488   1.922       .  S
C482        C483   1.405       .  A
C482        H487   1.083       .  S
C483        C484   1.417       .  A
C484       C1535   1.399       .  A
C484      Br1541   1.922       .  S
Br485      C1540   1.922       .  S
C489        C490   1.402       .  A
C489        C494   1.397       .  A
C489        H496   1.084       .  S
C490        C491   1.409       .  A
C491        C492   1.397       .  A
C491       Br498   1.921       .  S
C492        C493   1.408       .  A
C492        H497   1.083       .  S
C493        C494   1.414       .  A
C494       Br495   1.913       .  S
C499        C500   1.406       .  A
C499        C504   1.396       .  A
C499        H506   1.084       .  S
C500        C501   1.411       .  A
C501        C502   1.400       .  A
C501       Br508   1.914       .  S
C502        C503   1.404       .  A
C502        H507   1.083       .  S
C503        C504   1.410       .  A
C504       Br505   1.922       .  S
C509        C510   1.405       .  A
C509        C514   1.399       .  A
C509        H516   1.083       .  S
C510        C511   1.411       .  A
C511        C512   1.395       .  A
C511       Br518   1.923       .  S
C512        C513   1.405       .  A
C512        H517   1.083       .  S
C513        C514   1.411       .  A
C514       Br515   1.920       .  S
C519        C520   1.406       .  A
C519        C524   1.402       .  A
C519        H526   1.084       .  S
C520        C521   1.408       .  A
C521        C522   1.393       .  A
C521       Br528   1.915       .  S
C522        C523   1.404       .  A
C522        H527   1.083       .  S
C523        C524   1.415       .  A
C524       Br525   1.922       .  S
C529        C530   1.415       .  A
C529        C534   1.419       .  A
C529        C787   1.488       .  S
C530        C531   1.401       .  A
C530        H535   1.083       .  S
C531        C532   1.405       .  A
C531        C608   1.490       .  S
C532        C533   1.405       .  A
C532        H536   1.083       .  S
C533        C534   1.399       .  A
C533        C655   1.495       .  S
C534        H537   1.083       .  S
C538        C539   1.415       .  A
C538        C543   1.411       .  A
C538        C774   1.481       .  S
C539        C540   1.401       .  A
C539        H544   1.083       .  S
C540        C541   1.408       .  A
C540        C593   1.494       .  S
C541        C542   1.407       .  A
C541        H545   1.084       .  S
C542        C543   1.399       .  A
C542        C654   1.489       .  S
C543        H546   1.084       .  S
C547        C548   1.404       .  A
C547        C552   1.410       .  A
C547        C784   1.484       .  S
C548        C549   1.402       .  A
C548        H553   1.083       .  S
C549        C550   1.400       .  A
C549        C777   1.484       .  S
C550        C551   1.402       .  A
C550        H554   1.084       .  S
C551        C552   1.407       .  A
C551        C764   1.486       .  S
C552        H555   1.083       .  S
C556        C557   1.414       .  A
C556        C561   1.410       .  A
C556        C767   1.482       .  S
C557        C558   1.404       .  A
C557        H562   1.083       .  S
C558        C559   1.394       .  A
C558        C653   1.479       .  S
C559        C560   1.393       .  A
C560        C561   1.400       .  A
C560        C601   1.474       .  S
C561        H564   1.083       .  S
Zr565       O567   2.401       .  S
Zr565       O571   2.390       .  S
Zr565       O573   2.369       .  S
Zr565       O574   2.366       .  S
Zr565      O1103   2.388   1_455  S
Zr565       O576   2.384   1_455  S
Zr565      O1622   2.432   1_455  S
O566      Zr1621   2.432       .  S
O566        H622   0.989       .  S
O567        C587   1.281       .  A
O568        C589   1.277       .  A
O569       Zr843   2.490       .  S
O569        C588   1.294       .  A
O570       Zr578   2.480   1_554  S
O570        C589   1.292       .  A
O571        C588   1.279       .  A
O572       Zr580   2.424       .  S
O572        C587   1.279       .  A
O573       Zr580   2.383       .  S
O574       Zr843   2.392       .  S
O574       Zr580   2.380       .  S
O574        H609   0.966       .  S
O575      Zr1093   2.388   1_565  S
O575      Zr1634   2.406   1_554  S
O575       Zr859   2.394   1_554  S
O575        H612   0.966       .  S
O576       Zr843   2.401   1_655  S
O576      Zr1387   2.401   1_554  S
Zr577      O1652   2.397   1_455  S
Zr577       O604   2.390       .  S
Zr577       O583   2.381       .  S
Zr577       O584   2.385       .  S
Zr577       O586   2.371   1_455  S
Zr577       O602   2.436       .  S
Zr578       O855   2.490       .  S
Zr578      O1631   2.406   1_456  S
Zr578       O849   2.389   1_455  S
Zr578      O1917   2.436   1_455  S
Zr578       O590   2.434       .  S
Zr579       O833   2.490       .  S
Zr579       O605   2.478       .  S
Zr579       O838   2.392       .  S
Zr579       O840   2.401   1_455  S
Zr579       O583   2.403       .  S
Zr579       O586   2.393   1_455  S
Zr579       O581   2.434   1_455  S
Zr579       O867   2.436       .  S
Zr580       O847   2.397   1_554  S
Zr580       O848   2.397   1_554  S
Zr580       O606   2.435       .  S
Zr580       O871   2.438   1_554  S
Zr580       O582   2.437       .  S
O581        H618   0.990   1_655  S
O582        H613   0.990       .  S
O582        H627   0.990       .  S
O583       Zr844   2.397       .  S
O584       Zr844   2.397       .  S
O584        H610   0.966       .  S
O585       Zr842   2.389   1_655  S
O585      Zr1651   2.377       .  S
O586      Zr1123   2.381       .  S
O586       H1667   0.966       .  S
C587        C699   1.477       .  S
C588        C708   1.495       .  S
C589        C726   1.491       .  S
O590        H626   0.990       .  S
O591       Zr842   2.490       .  S
O591        C593   1.295       .  A
O592        C593   1.279       .  A
O594       Zr859   2.438   1_554  S
O594        H623   0.990       .  S
Zr595       O600   2.428       .  S
Zr595       O839   2.394       .  S
Zr595      O1368   2.401   1_565  S
Zr595      O1641   2.377       .  S
Zr595      O1114   2.381   1_565  S
Zr595       O858   2.438       .  S
Zr595       O598   2.438       .  S
O596      Zr1633   2.397       .  S
O597      Zr1898   2.436       .  S
O597        H614   0.990       .  S
O597        H893   0.990       .  S
O598        H615   0.990       .  S
O599        H619   0.990       .  S
O599        H628   0.990       .  S
O600        C601   1.280       .  A
O602        H621   0.990       .  S
O602        H625   0.990       .  S
O603       Zr843   2.436       .  S
O603        H617   0.990       .  S
O603        H624   0.990       .  S
O604        C608   1.280       .  A
O605        C608   1.293       .  A
O606        H616   0.990       .  S
O607       Zr844   2.438       .  S
O607        H620   0.990       .  S
H611       O1642   0.966       .  S
H629        O861   0.990   1_554  S
Zr631      O1689   2.400   1_455  S
Zr631       O634   2.385       .  S
Zr631       O641   2.393       .  S
Zr631       O642   2.387       .  S
Zr631       O632   2.432       .  S
Zr631       O639   2.263   1_455  S
O632        H688   0.989       .  S
O632        H696   0.990       .  S
O633      Zr1687   2.400       .  S
O634        C655   1.276       .  A
O635       Zr645   2.477       .  S
O635        C654   1.292       .  A
O636       Zr644   2.483       .  S
O636        C655   1.292       .  A
O637        C654   1.279       .  A
O638       Zr646   2.428       .  S
O638        C653   1.279       .  A
O639       Zr644   2.298   1_655  S
O639      Zr1174   2.288       .  S
O640       Zr645   2.398   1_655  S
O640      Zr1702   2.379       .  S
O640       H1731   0.966       .  S
O641       Zr644   2.407       .  S
O641       Zr661   2.402       .  S
O641        H678   0.966       .  S
O642       Zr661   2.400       .  S
Zr643       O662   2.393       .  S
Zr643       O658   2.385       .  S
Zr643      O1177   2.385   1_455  S
Zr643       O650   2.390   1_455  S
Zr643       O652   2.370       .  S
Zr643      O1724   2.433   1_455  S
Zr643       O651   2.262       .  S
Zr644       O657   2.490       .  S
Zr644       O650   2.402   1_455  S
Zr644       O663   2.436       .  S
Zr644       O656   2.435   1_455  S
Zr644       O651   2.290       .  S
Zr645       O671   2.480       .  S
Zr645      O1705   2.407   1_455  S
Zr645       O647   2.435       .  S
Zr645      O1725   2.436   1_455  S
Zr646      O1696   2.379       .  S
Zr646       O649   2.399       .  S
Zr646      O1178   2.399   1_565  S
Zr646       O672   2.436       .  S
Zr646       O673   2.436       .  S
Zr646      O1167   2.288   1_565  S
O647        H684   0.990       .  S
O648        H679   0.990       .  S
O648        H693   0.990       .  S
O649      Zr1171   2.385   1_565  S
O649      Zr1701   2.407       .  S
O650      Zr1174   2.399       .  S
O650       H1732   0.966       .  S
O651       Zr661   2.284       .  S
O652       Zr661   2.380       .  S
O652        H677   0.966       .  S
O656       H1748   0.990       .  S
O657        C659   1.294       .  A
O658        C659   1.278       .  A
C659        C710   1.495       .  S
O660       Zr661   2.438       .  S
O660        H689   0.990       .  S
Zr661       O666   2.438       .  S
Zr661       O664   2.437       .  S
Zr661       O665   2.440       .  S
O662        C667   1.280       .  A
O663        H680   0.990       .  S
O663        H695   0.990       .  S
O664        H681   0.990       .  S
O665        H685   0.990       .  S
O665        H694   0.990       .  S
O666        C667   1.282       .  A
C667        C701   1.478       .  S
O668      Zr1699   2.433       .  S
O668        H691   0.990       .  S
O669      Zr1701   2.436       .  S
O669        H683   0.990       .  S
O669        H690   0.990       .  S
O670        C674   1.279       .  A
O671        C674   1.293       .  A
O672        H682   0.990       .  S
C674        C728   1.492       .  S
H675       O1696   0.966       .  S
H676       O1706   0.966       .  S
H692       O1712   0.990       .  S
C697        C698   1.411       .  A
C697        C702   1.413       .  A
C697        C754   1.480       .  S
C698        C699   1.402       .  A
C698        H703   1.083       .  S
C699        C700   1.394       .  A
C700        C701   1.395       .  A
C700        H704   1.083       .  S
C701        C702   1.400       .  A
C702        H705   1.083       .  S
C706        C707   1.416       .  A
C706        C711   1.414       .  A
C706       C1800   1.484   1_455  S
C707        C708   1.402       .  A
C707        H712   1.084       .  S
C708        C709   1.408       .  A
C709        C710   1.408       .  A
C709        H713   1.084       .  S
C710        C711   1.400       .  A
C711        H714   1.083       .  S
C715        C716   1.408       .  A
C715        C720   1.404       .  A
C715        C734   1.486       .  S
C716        C717   1.408       .  A
C716        H721   1.083       .  S
C717        C718   1.407       .  A
C717        C757   1.491       .  S
C718        C719   1.403       .  A
C718        H722   1.083       .  S
C719        C720   1.400       .  A
C719        C747   1.489       .  S
C720        H723   1.083       .  S
C724        C725   1.413       .  A
C724        C729   1.414       .  A
C724        C737   1.479       .  S
C725       C1782   1.401       .  A
C725        H730   1.083       .  S
C726       C1781   1.401       .  A
C726        C727   1.408       .  A
C727        C728   1.405       .  A
C727        H731   1.084       .  S
C728       C1785   1.397       .  A
C729       C1784   1.397       .  A
C729        H732   1.084       .  S
C733        C734   1.408       .  A
C733        C738   1.398       .  A
C733        H740   1.082       .  S
C734        C735   1.411       .  A
C735        C736   1.395       .  A
C735       Br742   1.912       .  S
C736        C737   1.403       .  A
C736        H741   1.084       .  S
C737        C738   1.408       .  A
C738      Br1795   1.920       .  S
Br739      C1794   1.920   1_455  S
C743       C1800   1.402       .  A
C743       C1804   1.399       .  A
C743        H750   1.084   1_655  S
C744       C1799   1.402       .  A
C744        C745   1.413       .  A
C744       C1762   1.484       .  S
C745        C746   1.398       .  A
C745       Br752   1.922       .  S
C746        C747   1.405       .  A
C746        H751   1.083       .  S
C747        C748   1.417       .  A
C748       C1799   1.399       .  A
C748      Br1805   1.922       .  S
Br749      C1804   1.922       .  S
C753        C754   1.402       .  A
C753        C758   1.397       .  A
C753        H760   1.084       .  S
C754        C755   1.409       .  A
C755        C756   1.397       .  A
C755       Br762   1.921       .  S
C756        C757   1.408       .  A
C756        H761   1.083       .  S
C757        C758   1.414       .  A
C758       Br759   1.913       .  S
C763        C764   1.406       .  A
C763        C768   1.396       .  A
C763        H770   1.084       .  S
C764        C765   1.411       .  A
C765        C766   1.400       .  A
C765       Br772   1.914       .  S
C766        C767   1.404       .  A
C766        H771   1.083       .  S
C767        C768   1.410       .  A
C768       Br769   1.922       .  S
C773        C774   1.405       .  A
C773        C778   1.399       .  A
C773        H780   1.083       .  S
C774        C775   1.411       .  A
C775        C776   1.395       .  A
C775       Br782   1.923       .  S
C776        C777   1.405       .  A
C776        H781   1.083       .  S
C777        C778   1.411       .  A
C778       Br779   1.920       .  S
C783        C784   1.406       .  A
C783        C788   1.402       .  A
C783        H790   1.084       .  S
C784        C785   1.408       .  A
C785        C786   1.393       .  A
C785       Br792   1.915       .  S
C786        C787   1.404       .  A
C786        H791   1.083       .  S
C787        C788   1.415       .  A
C788       Br789   1.922       .  S
C793        C794   1.415       .  A
C793        C798   1.419       .  A
C793       C1051   1.488       .  S
C794        C795   1.401       .  A
C794        H799   1.083       .  S
C795        C796   1.405       .  A
C795        C872   1.490       .  S
C796        C797   1.405       .  A
C796        H800   1.083       .  S
C797        C798   1.399       .  A
C797        C919   1.495       .  S
C798        H801   1.083       .  S
C802        C803   1.415       .  A
C802        C807   1.411       .  A
C802       C1038   1.481       .  S
C803        C804   1.401       .  A
C803        H808   1.083       .  S
C804        C805   1.408       .  A
C804        C857   1.494       .  S
C805        C806   1.407       .  A
C805        H809   1.084       .  S
C806        C807   1.399       .  A
C806        C918   1.489       .  S
C807        H810   1.084       .  S
C811        C812   1.404       .  A
C811        C816   1.410       .  A
C811       C1048   1.484       .  S
C812        C813   1.402       .  A
C812        H817   1.083       .  S
C813        C814   1.400       .  A
C813       C1041   1.484       .  S
C814        C815   1.402       .  A
C814        H818   1.084       .  S
C815        C816   1.407       .  A
C815       C1028   1.486       .  S
C816        H819   1.083       .  S
C820        C821   1.414       .  A
C820        C825   1.410       .  A
C820       C1031   1.482       .  S
C821        C822   1.404       .  A
C821        H826   1.083       .  S
C822        C823   1.394       .  A
C822        C917   1.479       .  S
C823        C824   1.393       .  A
C824        C825   1.400       .  A
C824        C865   1.474       .  S
C825        H828   1.083       .  S
Zr829       O831   2.401       .  S
Zr829       O835   2.390       .  S
Zr829       O837   2.369       .  S
Zr829       O838   2.366       .  S
Zr829      O1367   2.388   1_455  S
Zr829       O840   2.384   1_455  S
Zr829      O1886   2.432   1_455  S
O830      Zr1885   2.432       .  S
O830        H886   0.989       .  S
O831        C851   1.281       .  A
O832        C853   1.277       .  A
O833        C852   1.294       .  A
O834       Zr842   2.480       .  S
O834        C853   1.292       .  A
O835        C852   1.279       .  A
O836       Zr844   2.424       .  S
O836        C851   1.279       .  A
O837       Zr844   2.383       .  S
O838       Zr844   2.380       .  S
O838        H873   0.966       .  S
O839      Zr1357   2.388   1_565  S
O839      Zr1898   2.406       .  S
O839        H876   0.966       .  S
O840      Zr1123   2.401       .  S
Zr841      O1916   2.397   1_455  S
Zr841       O868   2.390       .  S
Zr841       O847   2.381       .  S
Zr841       O848   2.385       .  S
Zr841       O850   2.371   1_455  S
Zr841       O866   2.436       .  S
Zr842      O1895   2.406   1_455  S
Zr842      O1653   2.436   1_455  S
Zr842       O854   2.434       .  S
Zr843       O869   2.478   1_554  S
Zr843       O847   2.403   1_554  S
Zr843       O850   2.393   1_454  S
Zr843       O845   2.434   1_455  S
Zr844       O870   2.435       .  S
Zr844       O846   2.437       .  S
O845        H882   0.990   1_655  S
O846        H877   0.990       .  S
O846        H891   0.990       .  S
O848        H874   0.966       .  S
O849      Zr1915   2.377       .  S
O850      Zr1387   2.381       .  S
O850       H1931   0.966       .  S
C851        C963   1.477       .  S
C852        C972   1.495       .  S
C853        C990   1.491       .  S
O854        H890   0.990       .  S
O855        C857   1.295       .  A
O856        C857   1.279       .  A
O858        H887   0.990       .  S
Zr859       O864   2.428       .  S
Zr859      O1104   2.401   1_566  S
Zr859      O1905   2.377       .  S
Zr859      O1378   2.381   1_565  S
Zr859       O862   2.438       .  S
O860      Zr1897   2.397       .  S
O861      Zr1634   2.436       .  S
O861        H878   0.990       .  S
O862        H879   0.990       .  S
O863        H883   0.990       .  S
O863        H892   0.990       .  S
O864        C865   1.280       .  A
O866        H885   0.990       .  S
O866        H889   0.990       .  S
O867        H881   0.990       .  S
O867        H888   0.990       .  S
O868        C872   1.280       .  A
O869        C872   1.293       .  A
O870        H880   0.990       .  S
O871        H884   0.990       .  S
H875       O1906   0.966       .  S
Zr895      O1953   2.400   1_455  S
Zr895       O898   2.385       .  S
Zr895       O905   2.393       .  S
Zr895       O906   2.387       .  S
Zr895       O896   2.432       .  S
Zr895       O903   2.263   1_455  S
O896        H952   0.989       .  S
O896        H960   0.990       .  S
O897      Zr1951   2.400       .  S
O898        C919   1.276       .  A
O899       Zr909   2.477       .  S
O899        C918   1.292       .  A
O900       Zr908   2.483       .  S
O900        C919   1.292       .  A
O901        C918   1.279       .  A
O902       Zr910   2.428       .  S
O902        C917   1.279       .  A
O903       Zr908   2.298   1_655  S
O903      Zr1438   2.288       .  S
O904       Zr909   2.398   1_655  S
O904      Zr1966   2.379       .  S
O904       H1995   0.966       .  S
O905       Zr908   2.407       .  S
O905       Zr925   2.402       .  S
O905        H942   0.966       .  S
O906       Zr925   2.400       .  S
Zr907       O926   2.393       .  S
Zr907       O922   2.385       .  S
Zr907      O1441   2.385   1_455  S
Zr907       O914   2.390   1_455  S
Zr907       O916   2.370       .  S
Zr907      O1988   2.433   1_455  S
Zr907       O915   2.262       .  S
Zr908       O921   2.490       .  S
Zr908       O914   2.402   1_455  S
Zr908       O927   2.436       .  S
Zr908       O920   2.435   1_455  S
Zr908       O915   2.290       .  S
Zr909       O935   2.480       .  S
Zr909      O1969   2.407   1_455  S
Zr909       O911   2.435       .  S
Zr909      O1989   2.436   1_455  S
Zr910      O1960   2.379       .  S
Zr910       O913   2.399       .  S
Zr910      O1442   2.399   1_565  S
Zr910       O936   2.436       .  S
Zr910       O937   2.436       .  S
Zr910      O1431   2.288   1_565  S
O911        H948   0.990       .  S
O912        H943   0.990       .  S
O912        H957   0.990       .  S
O913      Zr1435   2.385   1_565  S
O913      Zr1965   2.407       .  S
O914      Zr1438   2.399       .  S
O914       H1996   0.966       .  S
O915       Zr925   2.284       .  S
O916       Zr925   2.380       .  S
O916        H941   0.966       .  S
O920       H2012   0.990       .  S
O921        C923   1.294       .  A
O922        C923   1.278       .  A
C923        C974   1.495       .  S
O924       Zr925   2.438       .  S
O924        H953   0.990       .  S
Zr925       O930   2.438       .  S
Zr925       O928   2.437       .  S
Zr925       O929   2.440       .  S
O926        C931   1.280       .  A
O927        H944   0.990       .  S
O927        H959   0.990       .  S
O928        H945   0.990       .  S
O929        H949   0.990       .  S
O929        H958   0.990       .  S
O930        C931   1.282       .  A
C931        C965   1.478       .  S
O932      Zr1963   2.433       .  S
O932        H955   0.990       .  S
O933      Zr1965   2.436       .  S
O933        H947   0.990       .  S
O933        H954   0.990       .  S
O934        C938   1.279       .  A
O935        C938   1.293       .  A
O936        H946   0.990       .  S
C938        C992   1.492       .  S
H939       O1960   0.966       .  S
H940       O1970   0.966       .  S
H956       O1976   0.990       .  S
C961        C962   1.411       .  A
C961        C966   1.413       .  A
C961       C1018   1.480       .  S
C962        C963   1.402       .  A
C962        H967   1.083       .  S
C963        C964   1.394       .  A
C964        C965   1.395       .  A
C964        H968   1.083       .  S
C965        C966   1.400       .  A
C966        H969   1.083       .  S
C970        C971   1.416       .  A
C970        C975   1.414       .  A
C970       C2064   1.484   1_455  S
C971        C972   1.402       .  A
C971        H976   1.084       .  S
C972        C973   1.408       .  A
C973        C974   1.408       .  A
C973        H977   1.084       .  S
C974        C975   1.400       .  A
C975        H978   1.083       .  S
C979        C980   1.408       .  A
C979        C984   1.404       .  A
C979        C998   1.486       .  S
C980        C981   1.408       .  A
C980        H985   1.083       .  S
C981        C982   1.407       .  A
C981       C1021   1.491       .  S
C982        C983   1.403       .  A
C982        H986   1.083       .  S
C983        C984   1.400       .  A
C983       C1011   1.489       .  S
C984        H987   1.083       .  S
C988        C989   1.413       .  A
C988        C993   1.414       .  A
C988       C1001   1.479       .  S
C989       C2046   1.401       .  A
C989        H994   1.083       .  S
C990       C2045   1.401       .  A
C990        C991   1.408       .  A
C991        C992   1.405       .  A
C991        H995   1.084       .  S
C992       C2049   1.397       .  A
C993       C2048   1.397       .  A
C993        H996   1.084       .  S
C997        C998   1.408       .  A
C997       C1002   1.398       .  A
C997       H1004   1.082       .  S
C998        C999   1.411       .  A
C999       C1000   1.395       .  A
C999      Br1006   1.912       .  S
C1000      C1001   1.403       .  A
C1000      H1005   1.084       .  S
C1001      C1002   1.408       .  A
C1002     Br2059   1.920       .  S
Br1003     C2058   1.920   1_455  S
C1007      C2064   1.402       .  A
C1007      C2068   1.399       .  A
C1007      H1014   1.084   1_655  S
C1008      C2063   1.402       .  A
C1008      C1009   1.413       .  A
C1008      C2026   1.484       .  S
C1009      C1010   1.398       .  A
C1009     Br1016   1.922       .  S
C1010      C1011   1.405       .  A
C1010      H1015   1.083       .  S
C1011      C1012   1.417       .  A
C1012      C2063   1.399       .  A
C1012     Br2069   1.922       .  S
Br1013     C2068   1.922       .  S
C1017      C1018   1.402       .  A
C1017      C1022   1.397       .  A
C1017      H1024   1.084       .  S
C1018      C1019   1.409       .  A
C1019      C1020   1.397       .  A
C1019     Br1026   1.921       .  S
C1020      C1021   1.408       .  A
C1020      H1025   1.083       .  S
C1021      C1022   1.414       .  A
C1022     Br1023   1.913       .  S
C1027      C1028   1.406       .  A
C1027      C1032   1.396       .  A
C1027      H1034   1.084       .  S
C1028      C1029   1.411       .  A
C1029      C1030   1.400       .  A
C1029     Br1036   1.914       .  S
C1030      C1031   1.404       .  A
C1030      H1035   1.083       .  S
C1031      C1032   1.410       .  A
C1032     Br1033   1.922       .  S
C1037      C1038   1.405       .  A
C1037      C1042   1.399       .  A
C1037      H1044   1.083       .  S
C1038      C1039   1.411       .  A
C1039      C1040   1.395       .  A
C1039     Br1046   1.923       .  S
C1040      C1041   1.405       .  A
C1040      H1045   1.083       .  S
C1041      C1042   1.411       .  A
C1042     Br1043   1.920       .  S
C1047      C1048   1.406       .  A
C1047      C1052   1.402       .  A
C1047      H1054   1.084       .  S
C1048      C1049   1.408       .  A
C1049      C1050   1.393       .  A
C1049     Br1056   1.915       .  S
C1050      C1051   1.404       .  A
C1050      H1055   1.083       .  S
C1051      C1052   1.415       .  A
C1052     Br1053   1.922       .  S
C1057      C1058   1.415       .  A
C1057      C1062   1.419       .  A
C1057      C1315   1.488       .  S
C1058      C1059   1.401       .  A
C1058      H1063   1.083       .  S
C1059      C1060   1.405       .  A
C1059      C1136   1.490       .  S
C1060      C1061   1.405       .  A
C1060      H1064   1.083       .  S
C1061      C1062   1.399       .  A
C1061      C1183   1.495       .  S
C1062      H1065   1.083       .  S
C1066      C1067   1.415       .  A
C1066      C1071   1.411       .  A
C1066      C1302   1.481       .  S
C1067      C1068   1.401       .  A
C1067      H1072   1.083       .  S
C1068      C1069   1.408       .  A
C1068      C1121   1.494       .  S
C1069      C1070   1.407       .  A
C1069      H1073   1.084       .  S
C1070      C1071   1.399       .  A
C1070      C1182   1.489       .  S
C1071      H1074   1.084       .  S
C1075      C1076   1.404       .  A
C1075      C1080   1.410       .  A
C1075      C1312   1.484       .  S
C1076      C1077   1.402       .  A
C1076      H1081   1.083       .  S
C1077      C1078   1.400       .  A
C1077      C1305   1.484       .  S
C1078      C1079   1.402       .  A
C1078      H1082   1.084       .  S
C1079      C1080   1.407       .  A
C1079      C1292   1.486       .  S
C1080      H1083   1.083       .  S
C1084      C1085   1.414       .  A
C1084      C1089   1.410       .  A
C1084      C1295   1.482       .  S
C1085      C1086   1.404       .  A
C1085      H1090   1.083       .  S
C1086      C1087   1.394       .  A
C1086      C1181   1.479       .  S
C1087      C1088   1.393       .  A
C1087      H1619   1.083       .  S
C1088      C1089   1.400       .  A
C1088      C1129   1.474       .  S
C1089      H1092   1.083       .  S
H1091      C1615   1.083   1_545  S
Zr1093     O1095   2.401       .  S
Zr1093     O1624   2.386   1_545  S
Zr1093     O1099   2.390       .  S
Zr1093     O1101   2.369       .  S
Zr1093     O1102   2.366       .  S
Zr1093     O1104   2.384       .  S
O1094      H1150   0.989   1_655  S
O1094      H1686   0.990   1_545  S
O1095      C1115   1.281       .  A
O1096     Zr1621   2.386       .  S
O1096      C1117   1.277       .  A
O1097     Zr1371   2.490       .  S
O1097      C1116   1.294       .  A
O1098     Zr1106   2.480   1_554  S
O1098      C1117   1.292       .  A
O1099      C1116   1.279       .  A
O1100     Zr1108   2.424       .  S
O1100      C1115   1.279       .  A
O1101     Zr1634   2.402   1_544  S
O1101     Zr1108   2.383       .  S
O1102     Zr1371   2.392       .  S
O1102     Zr1108   2.380       .  S
O1102      H1137   0.966       .  S
O1103     Zr1387   2.394   1_554  S
O1103      H1140   0.966       .  S
O1104     Zr1371   2.401       .  S
Zr1105     O1132   2.390       .  S
Zr1105     O1648   2.387   1_545  S
Zr1105     O1111   2.381       .  S
Zr1105     O1112   2.385       .  S
Zr1105     O1641   2.366   1_545  S
Zr1105     O1114   2.371       .  S
Zr1105     O1130   2.436       .  S
Zr1106     O1383   2.490       .  S
Zr1106     O1629   2.402   1_556  S
Zr1106     O1904   2.404       .  S
Zr1106     O1377   2.389       .  S
Zr1106     O1118   2.434       .  S
Zr1107     O1361   2.490       .  S
Zr1107     O1133   2.478       .  S
Zr1107     O1366   2.392       .  S
Zr1107     O1368   2.401       .  S
Zr1107     O1111   2.403       .  S
Zr1107     O1114   2.393       .  S
Zr1107     O1109   2.434       .  S
Zr1107     O1395   2.436       .  S
Zr1108     O1375   2.397   1_554  S
Zr1108     O1376   2.397   1_554  S
Zr1108     O1134   2.435       .  S
Zr1108     O1399   2.438   1_554  S
Zr1108     O1110   2.437       .  S
O1109      H1146   0.990       .  S
O1110      H1141   0.990       .  S
O1110      H1155   0.990       .  S
O1111     Zr1372   2.397       .  S
O1112     Zr1898   2.404   1_545  S
O1112     Zr1372   2.397       .  S
O1112      H1138   0.966       .  S
O1113     Zr1633   2.366       .  S
O1113     Zr1370   2.389       .  S
C1115      C1227   1.477       .  S
C1116      C1236   1.495       .  S
C1117      C1254   1.491       .  S
O1118      H1154   0.990       .  S
O1119     Zr1370   2.490       .  S
O1119      C1121   1.295       .  A
O1120     Zr1633   2.387       .  S
O1120      C1121   1.279       .  A
O1122     Zr1387   2.438   1_554  S
O1122      H1151   0.990       .  S
Zr1123     O1128   2.428       .  S
Zr1123     O1367   2.394       .  S
Zr1123     O1386   2.438       .  S
Zr1123     O1126   2.438       .  S
Zr1123     O1655   2.438       .  S
O1124      C1657   1.281       .  A
O1125      H1142   0.990       .  S
O1125      H1421   0.990       .  S
O1126      H1143   0.990       .  S
O1127     Zr1651   2.438   1_545  S
O1127      H1147   0.990   1_545  S
O1127      H1156   0.990       .  S
O1128      C1129   1.280       .  A
C1129      O1652   1.281       .  A
O1130      H1149   0.990       .  S
O1130      H1153   0.990       .  S
O1131     Zr1371   2.436       .  S
O1131      H1145   0.990       .  S
O1131      H1152   0.990       .  S
O1132      C1136   1.280       .  A
O1133      C1136   1.293       .  A
O1134      H1144   0.990       .  S
O1135     Zr1372   2.438       .  S
O1135      H1148   0.990       .  S
H1157      O1389   0.990   1_554  S
H1158      O1622   0.990       .  S
Zr1159     O1162   2.385       .  S
Zr1159     O1693   2.391   1_545  S
Zr1159     O1696   2.368   1_545  S
Zr1159     O1169   2.393       .  S
Zr1159     O1170   2.387       .  S
Zr1159     O1160   2.432       .  S
Zr1159     O1167   2.263       .  S
O1160      H1216   0.989       .  S
O1160      H1224   0.990       .  S
O1161      C1709   1.281   1_545  A
O1162      C1183   1.276       .  A
O1163     Zr1173   2.477       .  S
O1163      C1182   1.292       .  A
O1164     Zr1172   2.483       .  S
O1164      C1183   1.292       .  A
O1165     Zr1687   2.391       .  S
O1165      C1182   1.279       .  A
O1166     Zr1174   2.428       .  S
O1166      C1181   1.279       .  A
O1167     Zr1172   2.298       .  S
O1168     Zr1687   2.368       .  S
O1168     Zr1173   2.398       .  S
O1169     Zr1172   2.407       .  S
O1169     Zr1189   2.402       .  S
O1169      H1206   0.966       .  S
O1170     Zr1701   2.405   1_545  S
O1170     Zr1189   2.400       .  S
Zr1171     O1190   2.393       .  S
Zr1171     O1726   2.390   1_545  S
Zr1171     O1186   2.385       .  S
Zr1171     O1178   2.390       .  S
Zr1171     O1180   2.370       .  S
Zr1171     O1179   2.262       .  S
Zr1172     O1185   2.490       .  S
Zr1172     O1178   2.402       .  S
Zr1172     O1191   2.436       .  S
Zr1172     O1184   2.435       .  S
Zr1172     O1179   2.290       .  S
Zr1173     O1199   2.480       .  S
Zr1173     O1698   2.405       .  S
Zr1173     O1708   2.392       .  S
Zr1173     O1175   2.435       .  S
Zr1174     O1177   2.399       .  S
Zr1174     O1200   2.436       .  S
Zr1174     O1201   2.436       .  S
Zr1174     O1704   2.436       .  S
O1175      H1212   0.990       .  S
O1176     Zr1702   2.436   1_545  S
O1176      H1207   0.990   1_545  S
O1176      H1221   0.990       .  S
O1179     Zr1189   2.284       .  S
O1180     Zr1701   2.392   1_545  S
O1180     Zr1189   2.380       .  S
O1180      H1205   0.966       .  S
C1181      O1689   1.281       .  A
O1185      C1187   1.294       .  A
O1186      C1187   1.278       .  A
C1187      C1238   1.495       .  S
O1188     Zr1189   2.438       .  S
O1188      H1217   0.990       .  S
Zr1189     O1194   2.438       .  S
Zr1189     O1192   2.437       .  S
Zr1189     O1193   2.440       .  S
O1190      C1195   1.280       .  A
O1191      H1208   0.990       .  S
O1191      H1223   0.990       .  S
O1192      H1209   0.990       .  S
O1193      H1213   0.990       .  S
O1193      H1222   0.990       .  S
O1194      C1195   1.282       .  A
C1195      C1229   1.478       .  S
O1196      H1743   0.990   1_545  S
O1196      H1219   0.990       .  S
O1197      H1211   0.990       .  S
O1197      H1218   0.990       .  S
O1198     Zr1699   2.390       .  S
O1198      C1202   1.279       .  A
O1199      C1202   1.293       .  A
O1200      H1210   0.990       .  S
O1201      H1742   0.990       .  S
C1202      C1256   1.492       .  S
H1214      O1729   0.990       .  S
H1215      O1724   0.990       .  S
C1225      C1226   1.411       .  A
C1225      C1230   1.413       .  A
C1225      C1282   1.480       .  S
C1226      C1227   1.402       .  A
C1226      H1231   1.083       .  S
C1227      C1228   1.394       .  A
C1228      C1229   1.395       .  A
C1228      H1232   1.083       .  S
C1229      C1230   1.400       .  A
C1230      H1233   1.083       .  S
C1234      C1235   1.416       .  A
C1234      C1239   1.414       .  A
C1235      C1236   1.402       .  A
C1235      H1240   1.084       .  S
C1236      C1237   1.408       .  A
C1237      C1238   1.408       .  A
C1237      H1241   1.084       .  S
C1238      C1239   1.400       .  A
C1239      H1242   1.083       .  S
C1243      C1244   1.408       .  A
C1243      C1248   1.404       .  A
C1243      C1262   1.486       .  S
C1244      C1245   1.408       .  A
C1244      H1249   1.083       .  S
C1245      C1246   1.407       .  A
C1245      C1285   1.491       .  S
C1246      C1247   1.403       .  A
C1246      H1250   1.083       .  S
C1247      C1248   1.400       .  A
C1247      C1275   1.489       .  S
C1248      H1251   1.083       .  S
C1252      C1253   1.413   1_655  A
C1252      C1257   1.414   1_655  A
C1252      C1265   1.479       .  S
C1253      H1258   1.083   1_455  S
C1254      C1255   1.408       .  A
C1255      C1256   1.405       .  A
C1255      H1259   1.084       .  S
C1257      H1260   1.084       .  S
C1261      C1262   1.408       .  A
C1261      C1266   1.398       .  A
C1261      H1268   1.082       .  S
C1262      C1263   1.411       .  A
C1263      C1264   1.395       .  A
C1263     Br1270   1.912       .  S
C1264      C1265   1.403       .  A
C1264      H1269   1.084       .  S
C1265      C1266   1.408       .  A
C1271      H1278   1.084       .  S
C1272      C1273   1.413       .  A
C1273      C1274   1.398       .  A
C1273     Br1280   1.922       .  S
C1274      C1275   1.405       .  A
C1274      H1279   1.083       .  S
C1275      C1276   1.417       .  A
C1281      C1282   1.402       .  A
C1281      C1286   1.397       .  A
C1281      H1288   1.084       .  S
C1282      C1283   1.409       .  A
C1283      C1284   1.397       .  A
C1283     Br1290   1.921       .  S
C1284      C1285   1.408       .  A
C1284      H1289   1.083       .  S
C1285      C1286   1.414       .  A
C1286     Br1287   1.913       .  S
C1291      C1292   1.406       .  A
C1291      C1296   1.396       .  A
C1291      H1298   1.084       .  S
C1292      C1293   1.411       .  A
C1293      C1294   1.400       .  A
C1293     Br1300   1.914       .  S
C1294      C1295   1.404       .  A
C1294      H1299   1.083       .  S
C1295      C1296   1.410       .  A
C1296     Br1297   1.922       .  S
C1301      C1302   1.405       .  A
C1301      C1306   1.399       .  A
C1301      H1308   1.083       .  S
C1302      C1303   1.411       .  A
C1303      C1304   1.395       .  A
C1303     Br1310   1.923       .  S
C1304      C1305   1.405       .  A
C1304      H1309   1.083       .  S
C1305      C1306   1.411       .  A
C1306     Br1307   1.920       .  S
C1311      C1312   1.406       .  A
C1311      C1316   1.402       .  A
C1311      H1318   1.084       .  S
C1312      C1313   1.408       .  A
C1313      C1314   1.393       .  A
C1313     Br1320   1.915       .  S
C1314      C1315   1.404       .  A
C1314      H1319   1.083       .  S
C1315      C1316   1.415       .  A
C1316     Br1317   1.922       .  S
C1321      C1322   1.415       .  A
C1321      C1326   1.419       .  A
C1321      C1579   1.488       .  S
C1322      C1323   1.401       .  A
C1322      H1327   1.083       .  S
C1323      C1324   1.405       .  A
C1323      C1400   1.490       .  S
C1324      C1325   1.405       .  A
C1324      H1328   1.083       .  S
C1325      C1326   1.399       .  A
C1325      C1447   1.495       .  S
C1326      H1329   1.083       .  S
C1330      C1331   1.415       .  A
C1330      C1335   1.411       .  A
C1330      C1566   1.481       .  S
C1331      C1332   1.401       .  A
C1331      H1336   1.083       .  S
C1332      C1333   1.408       .  A
C1332      C1385   1.494       .  S
C1333      C1334   1.407       .  A
C1333      H1337   1.084       .  S
C1334      C1335   1.399       .  A
C1334      C1446   1.489       .  S
C1335      H1338   1.084       .  S
C1339      C1340   1.404       .  A
C1339      C1344   1.410       .  A
C1339      C1576   1.484       .  S
C1340      C1341   1.402       .  A
C1340      H1345   1.083       .  S
C1341      C1342   1.400       .  A
C1341      C1569   1.484       .  S
C1342      C1343   1.402       .  A
C1342      H1346   1.084       .  S
C1343      C1344   1.407       .  A
C1343      C1556   1.486       .  S
C1344      H1347   1.083       .  S
C1348      C1349   1.414       .  A
C1348      C1353   1.410       .  A
C1348      C1559   1.482       .  S
C1349      C1350   1.404       .  A
C1349      H1354   1.083       .  S
C1350      C1351   1.394       .  A
C1350      C1445   1.479       .  S
C1351      C1352   1.393       .  A
C1351      H1883   1.083       .  S
C1352      C1353   1.400       .  A
C1352      C1393   1.474       .  S
C1353      H1356   1.083       .  S
H1355      C1879   1.083   1_545  S
Zr1357     O1359   2.401       .  S
Zr1357     O1888   2.386   1_545  S
Zr1357     O1363   2.390       .  S
Zr1357     O1365   2.369       .  S
Zr1357     O1366   2.366       .  S
Zr1357     O1368   2.384       .  S
O1358      H1414   0.989   1_655  S
O1358      H1950   0.990   1_545  S
O1359      C1379   1.281       .  A
O1360     Zr1885   2.386       .  S
O1360      C1381   1.277       .  A
O1361      C1380   1.294       .  A
O1362     Zr1370   2.480       .  S
O1362      C1381   1.292       .  A
O1363      C1380   1.279       .  A
O1364     Zr1372   2.424       .  S
O1364      C1379   1.279       .  A
O1365     Zr1898   2.402   1_545  S
O1365     Zr1372   2.383       .  S
O1366     Zr1372   2.380       .  S
O1366      H1401   0.966       .  S
O1367      H1404   0.966       .  S
Zr1369     O1396   2.390       .  S
Zr1369     O1912   2.387   1_545  S
Zr1369     O1375   2.381       .  S
Zr1369     O1376   2.385       .  S
Zr1369     O1905   2.366   1_545  S
Zr1369     O1378   2.371       .  S
Zr1369     O1394   2.436       .  S
Zr1370     O1893   2.402       .  S
Zr1370     O1640   2.404       .  S
Zr1370     O1382   2.434       .  S
Zr1371     O1397   2.478   1_554  S
Zr1371     O1375   2.403   1_554  S
Zr1371     O1378   2.393   1_554  S
Zr1371     O1373   2.434       .  S
Zr1372     O1398   2.435       .  S
Zr1372     O1374   2.437       .  S
O1373      H1410   0.990       .  S
O1374      H1405   0.990       .  S
O1374      H1419   0.990       .  S
O1376     Zr1634   2.404   1_545  S
O1376      H1402   0.966       .  S
O1377     Zr1897   2.366       .  S
C1379      C1491   1.477       .  S
C1380      C1500   1.495       .  S
C1381      C1518   1.491       .  S
O1382      H1418   0.990       .  S
O1383      C1385   1.295       .  A
O1384     Zr1897   2.387       .  S
O1384      C1385   1.279       .  A
O1386      H1415   0.990       .  S
Zr1387     O1392   2.428       .  S
Zr1387     O1390   2.438       .  S
Zr1387     O1919   2.438       .  S
O1388      C1921   1.281       .  A
O1389      H1406   0.990       .  S
O1390      H1407   0.990       .  S
O1391     Zr1915   2.438   1_545  S
O1391      H1411   0.990   1_545  S
O1391      H1420   0.990       .  S
O1392      C1393   1.280       .  A
C1393      O1916   1.281       .  A
O1394      H1413   0.990       .  S
O1394      H1417   0.990       .  S
O1395      H1409   0.990       .  S
O1395      H1416   0.990       .  S
O1396      C1400   1.280       .  A
O1397      C1400   1.293       .  A
O1398      H1408   0.990       .  S
O1399      H1412   0.990       .  S
H1422      O1886   0.990       .  S
Zr1423     O1426   2.385       .  S
Zr1423     O1957   2.391   1_545  S
Zr1423     O1960   2.368   1_545  S
Zr1423     O1433   2.393       .  S
Zr1423     O1434   2.387       .  S
Zr1423     O1424   2.432       .  S
Zr1423     O1431   2.263       .  S
O1424      H1480   0.989       .  S
O1424      H1488   0.990       .  S
O1425      C1973   1.281   1_545  A
O1426      C1447   1.276       .  A
O1427     Zr1437   2.477       .  S
O1427      C1446   1.292       .  A
O1428     Zr1436   2.483       .  S
O1428      C1447   1.292       .  A
O1429     Zr1951   2.391       .  S
O1429      C1446   1.279       .  A
O1430     Zr1438   2.428       .  S
O1430      C1445   1.279       .  A
O1431     Zr1436   2.298       .  S
O1432     Zr1951   2.368       .  S
O1432     Zr1437   2.398       .  S
O1433     Zr1436   2.407       .  S
O1433     Zr1453   2.402       .  S
O1433      H1470   0.966       .  S
O1434     Zr1965   2.405   1_545  S
O1434     Zr1453   2.400       .  S
Zr1435     O1454   2.393       .  S
Zr1435     O1990   2.390   1_545  S
Zr1435     O1450   2.385       .  S
Zr1435     O1442   2.390       .  S
Zr1435     O1444   2.370       .  S
Zr1435     O1443   2.262       .  S
Zr1436     O1449   2.490       .  S
Zr1436     O1442   2.402       .  S
Zr1436     O1455   2.436       .  S
Zr1436     O1448   2.435       .  S
Zr1436     O1443   2.290       .  S
Zr1437     O1463   2.480       .  S
Zr1437     O1962   2.405       .  S
Zr1437     O1972   2.392       .  S
Zr1437     O1439   2.435       .  S
Zr1438     O1441   2.399       .  S
Zr1438     O1464   2.436       .  S
Zr1438     O1465   2.436       .  S
Zr1438     O1968   2.436       .  S
O1439      H1476   0.990       .  S
O1440     Zr1966   2.436   1_545  S
O1440      H1471   0.990   1_545  S
O1440      H1485   0.990       .  S
O1443     Zr1453   2.284       .  S
O1444     Zr1965   2.392   1_545  S
O1444     Zr1453   2.380       .  S
O1444      H1469   0.966       .  S
C1445      O1953   1.281       .  A
O1449      C1451   1.294       .  A
O1450      C1451   1.278       .  A
C1451      C1502   1.495       .  S
O1452     Zr1453   2.438       .  S
O1452      H1481   0.990       .  S
Zr1453     O1458   2.438       .  S
Zr1453     O1456   2.437       .  S
Zr1453     O1457   2.440       .  S
O1454      C1459   1.280       .  A
O1455      H1472   0.990       .  S
O1455      H1487   0.990       .  S
O1456      H1473   0.990       .  S
O1457      H1477   0.990       .  S
O1457      H1486   0.990       .  S
O1458      C1459   1.282       .  A
C1459      C1493   1.478       .  S
O1460      H2007   0.990   1_545  S
O1460      H1483   0.990       .  S
O1461      H1475   0.990       .  S
O1461      H1482   0.990       .  S
O1462     Zr1963   2.390       .  S
O1462      C1466   1.279       .  A
O1463      C1466   1.293       .  A
O1464      H1474   0.990       .  S
O1465      H2006   0.990       .  S
C1466      C1520   1.492       .  S
H1478      O1993   0.990       .  S
H1479      O1988   0.990       .  S
C1489      C1490   1.411       .  A
C1489      C1494   1.413       .  A
C1489      C1546   1.480       .  S
C1490      C1491   1.402       .  A
C1490      H1495   1.083       .  S
C1491      C1492   1.394       .  A
C1492      C1493   1.395       .  A
C1492      H1496   1.083       .  S
C1493      C1494   1.400       .  A
C1494      H1497   1.083       .  S
C1498      C1499   1.416       .  A
C1498      C1503   1.414       .  A
C1499      C1500   1.402       .  A
C1499      H1504   1.084       .  S
C1500      C1501   1.408       .  A
C1501      C1502   1.408       .  A
C1501      H1505   1.084       .  S
C1502      C1503   1.400       .  A
C1503      H1506   1.083       .  S
C1507      C1508   1.408       .  A
C1507      C1512   1.404       .  A
C1507      C1526   1.486       .  S
C1508      C1509   1.408       .  A
C1508      H1513   1.083       .  S
C1509      C1510   1.407       .  A
C1509      C1549   1.491       .  S
C1510      C1511   1.403       .  A
C1510      H1514   1.083       .  S
C1511      C1512   1.400       .  A
C1511      C1539   1.489       .  S
C1512      H1515   1.083       .  S
C1516      C1517   1.413   1_655  A
C1516      C1521   1.414   1_655  A
C1516      C1529   1.479       .  S
C1517      H1522   1.083   1_455  S
C1518      C1519   1.408       .  A
C1519      C1520   1.405       .  A
C1519      H1523   1.084       .  S
C1521      H1524   1.084       .  S
C1525      C1526   1.408       .  A
C1525      C1530   1.398       .  A
C1525      H1532   1.082       .  S
C1526      C1527   1.411       .  A
C1527      C1528   1.395       .  A
C1527     Br1534   1.912       .  S
C1528      C1529   1.403       .  A
C1528      H1533   1.084       .  S
C1529      C1530   1.408       .  A
C1535      H1542   1.084       .  S
C1536      C1537   1.413       .  A
C1537      C1538   1.398       .  A
C1537     Br1544   1.922       .  S
C1538      C1539   1.405       .  A
C1538      H1543   1.083       .  S
C1539      C1540   1.417       .  A
C1545      C1546   1.402       .  A
C1545      C1550   1.397       .  A
C1545      H1552   1.084       .  S
C1546      C1547   1.409       .  A
C1547      C1548   1.397       .  A
C1547     Br1554   1.921       .  S
C1548      C1549   1.408       .  A
C1548      H1553   1.083       .  S
C1549      C1550   1.414       .  A
C1550     Br1551   1.913       .  S
C1555      C1556   1.406       .  A
C1555      C1560   1.396       .  A
C1555      H1562   1.084       .  S
C1556      C1557   1.411       .  A
C1557      C1558   1.400       .  A
C1557     Br1564   1.914       .  S
C1558      C1559   1.404       .  A
C1558      H1563   1.083       .  S
C1559      C1560   1.410       .  A
C1560     Br1561   1.922       .  S
C1565      C1566   1.405       .  A
C1565      C1570   1.399       .  A
C1565      H1572   1.083       .  S
C1566      C1567   1.411       .  A
C1567      C1568   1.395       .  A
C1567     Br1574   1.923       .  S
C1568      C1569   1.405       .  A
C1568      H1573   1.083       .  S
C1569      C1570   1.411       .  A
C1570     Br1571   1.920       .  S
C1575      C1576   1.406       .  A
C1575      C1580   1.402       .  A
C1575      H1582   1.084       .  S
C1576      C1577   1.408       .  A
C1577      C1578   1.393       .  A
C1577     Br1584   1.915       .  S
C1578      C1579   1.404       .  A
C1578      H1583   1.083       .  S
C1579      C1580   1.415       .  A
C1580     Br1581   1.922       .  S
C1585      C1586   1.415       .  A
C1585      C1590   1.419       .  A
C1585      C1843   1.488       .  S
C1586      C1587   1.401       .  A
C1586      H1591   1.083       .  S
C1587      C1588   1.405       .  A
C1587      C1664   1.490       .  S
C1588      C1589   1.405       .  A
C1588      H1592   1.083       .  S
C1589      C1590   1.399       .  A
C1589      C1711   1.495       .  S
C1590      H1593   1.083       .  S
C1594      C1595   1.415       .  A
C1594      C1599   1.411       .  A
C1594      C1830   1.481       .  S
C1595      C1596   1.401       .  A
C1595      H1600   1.083       .  S
C1596      C1597   1.408       .  A
C1596      C1649   1.494       .  S
C1597      C1598   1.407       .  A
C1597      H1601   1.084       .  S
C1598      C1599   1.399       .  A
C1598      C1710   1.489       .  S
C1599      H1602   1.084       .  S
C1603      C1604   1.404       .  A
C1603      C1608   1.410       .  A
C1603      C1840   1.484       .  S
C1604      C1605   1.402       .  A
C1604      H1609   1.083       .  S
C1605      C1606   1.400       .  A
C1605      C1833   1.484       .  S
C1606      C1607   1.402       .  A
C1606      H1610   1.084       .  S
C1607      C1608   1.407       .  A
C1607      C1820   1.486       .  S
C1608      H1611   1.083       .  S
C1612      C1613   1.414       .  A
C1612      C1617   1.410       .  A
C1612      C1823   1.482       .  S
C1613      C1614   1.404       .  A
C1613      H1618   1.083       .  S
C1614      C1615   1.394       .  A
C1614      C1709   1.479       .  S
C1615      C1616   1.393       .  A
C1616      C1617   1.400       .  A
C1616      C1657   1.474       .  S
C1617      H1620   1.083       .  S
Zr1621     O1623   2.401       .  S
Zr1621     O1627   2.390       .  S
Zr1621     O1629   2.369       .  S
Zr1621     O1630   2.366       .  S
Zr1621     O1632   2.384       .  S
O1622      H1678   0.989   1_655  S
O1623      C1643   1.281       .  A
O1624      C1645   1.277       .  A
O1625     Zr1899   2.490       .  S
O1625      C1644   1.294       .  A
O1626     Zr1634   2.480   1_554  S
O1626      C1645   1.292       .  A
O1627      C1644   1.279       .  A
O1628     Zr1636   2.424       .  S
O1628      C1643   1.279       .  A
O1629     Zr1636   2.383       .  S
O1630     Zr1899   2.392       .  S
O1630     Zr1636   2.380       .  S
O1630      H1665   0.966       .  S
O1631     Zr1915   2.394   1_554  S
O1631      H1668   0.966       .  S
O1632     Zr1899   2.401       .  S
Zr1633     O1660   2.390       .  S
Zr1633     O1639   2.381       .  S
Zr1633     O1640   2.385       .  S
Zr1633     O1642   2.371       .  S
Zr1633     O1658   2.436       .  S
Zr1634     O1911   2.490       .  S
Zr1634     O1905   2.389       .  S
Zr1634     O1646   2.434       .  S
Zr1635     O1889   2.490       .  S
Zr1635     O1661   2.478       .  S
Zr1635     O1894   2.392       .  S
Zr1635     O1896   2.401       .  S
Zr1635     O1639   2.403       .  S
Zr1635     O1642   2.393       .  S
Zr1635     O1637   2.434       .  S
Zr1635     O1923   2.436       .  S
Zr1636     O1903   2.397   1_554  S
Zr1636     O1904   2.397   1_554  S
Zr1636     O1662   2.435       .  S
Zr1636     O1927   2.438   1_554  S
Zr1636     O1638   2.437       .  S
O1637      H1674   0.990       .  S
O1638      H1669   0.990       .  S
O1638      H1683   0.990       .  S
O1639     Zr1900   2.397       .  S
O1640     Zr1900   2.397       .  S
O1640      H1666   0.966       .  S
O1641     Zr1898   2.389       .  S
C1643      C1755   1.477       .  S
C1644      C1764   1.495       .  S
C1645      C1782   1.491       .  S
O1646      H1682   0.990       .  S
O1647     Zr1898   2.490       .  S
O1647      C1649   1.295       .  A
O1648      C1649   1.279       .  A
O1650     Zr1915   2.438   1_554  S
O1650      H1679   0.990       .  S
Zr1651     O1656   2.428       .  S
Zr1651     O1895   2.394       .  S
Zr1651     O1914   2.438       .  S
Zr1651     O1654   2.438       .  S
O1653      H1670   0.990       .  S
O1653      H1949   0.990       .  S
O1654      H1671   0.990       .  S
O1655      H1675   0.990       .  S
O1655      H1684   0.990       .  S
O1656      C1657   1.280       .  A
O1658      H1677   0.990       .  S
O1658      H1681   0.990       .  S
O1659     Zr1899   2.436       .  S
O1659      H1673   0.990       .  S
O1659      H1680   0.990       .  S
O1660      C1664   1.280       .  A
O1661      C1664   1.293       .  A
O1662      H1672   0.990       .  S
O1663     Zr1900   2.438       .  S
O1663      H1676   0.990       .  S
H1685      O1917   0.990   1_554  S
Zr1687     O1690   2.385       .  S
Zr1687     O1697   2.393       .  S
Zr1687     O1698   2.387       .  S
Zr1687     O1688   2.432       .  S
Zr1687     O1695   2.263       .  S
O1688      H1744   0.989       .  S
O1688      H1752   0.990       .  S
O1690      C1711   1.276       .  A
O1691     Zr1701   2.477       .  S
O1691      C1710   1.292       .  A
O1692     Zr1700   2.483       .  S
O1692      C1711   1.292       .  A
O1693      C1710   1.279       .  A
O1694     Zr1702   2.428       .  S
O1694      C1709   1.279       .  A
O1695     Zr1700   2.298       .  S
O1696     Zr1701   2.398       .  S
O1697     Zr1700   2.407       .  S
O1697     Zr1717   2.402       .  S
O1697      H1734   0.966       .  S
O1698     Zr1717   2.400       .  S
Zr1699     O1718   2.393       .  S
Zr1699     O1714   2.385       .  S
Zr1699     O1706   2.390       .  S
Zr1699     O1708   2.370       .  S
Zr1699     O1707   2.262       .  S
Zr1700     O1713   2.490       .  S
Zr1700     O1706   2.402       .  S
Zr1700     O1719   2.436       .  S
Zr1700     O1712   2.435       .  S
Zr1700     O1707   2.290       .  S
Zr1701     O1727   2.480       .  S
Zr1701     O1703   2.435       .  S
Zr1702     O1705   2.399       .  S
Zr1702     O1728   2.436       .  S
Zr1702     O1729   2.436       .  S
O1703      H1740   0.990       .  S
O1704      H1735   0.990       .  S
O1704      H1749   0.990       .  S
O1707     Zr1717   2.284       .  S
O1708     Zr1717   2.380       .  S
O1708      H1733   0.966       .  S
O1713      C1715   1.294       .  A
O1714      C1715   1.278       .  A
C1715      C1766   1.495       .  S
O1716     Zr1717   2.438       .  S
O1716      H1745   0.990       .  S
Zr1717     O1722   2.438       .  S
Zr1717     O1720   2.437       .  S
Zr1717     O1721   2.440       .  S
O1718      C1723   1.280       .  A
O1719      H1736   0.990       .  S
O1719      H1751   0.990       .  S
O1720      H1737   0.990       .  S
O1721      H1741   0.990       .  S
O1721      H1750   0.990       .  S
O1722      C1723   1.282       .  A
C1723      C1757   1.478       .  S
O1724      H1747   0.990       .  S
O1725      H1739   0.990       .  S
O1725      H1746   0.990       .  S
O1726      C1730   1.279       .  A
O1727      C1730   1.293       .  A
O1728      H1738   0.990       .  S
C1730      C1784   1.492       .  S
C1753      C1754   1.411       .  A
C1753      C1758   1.413       .  A
C1753      C1810   1.480       .  S
C1754      C1755   1.402       .  A
C1754      H1759   1.083       .  S
C1755      C1756   1.394       .  A
C1756      C1757   1.395       .  A
C1756      H1760   1.083       .  S
C1757      C1758   1.400       .  A
C1758      H1761   1.083       .  S
C1762      C1763   1.416       .  A
C1762      C1767   1.414       .  A
C1763      C1764   1.402       .  A
C1763      H1768   1.084       .  S
C1764      C1765   1.408       .  A
C1765      C1766   1.408       .  A
C1765      H1769   1.084       .  S
C1766      C1767   1.400       .  A
C1767      H1770   1.083       .  S
C1771      C1772   1.408       .  A
C1771      C1776   1.404       .  A
C1771      C1790   1.486       .  S
C1772      C1773   1.408       .  A
C1772      H1777   1.083       .  S
C1773      C1774   1.407       .  A
C1773      C1813   1.491       .  S
C1774      C1775   1.403       .  A
C1774      H1778   1.083       .  S
C1775      C1776   1.400       .  A
C1775      C1803   1.489       .  S
C1776      H1779   1.083       .  S
C1780      C1781   1.413   1_655  A
C1780      C1785   1.414   1_655  A
C1780      C1793   1.479       .  S
C1781      H1786   1.083   1_455  S
C1782      C1783   1.408       .  A
C1783      C1784   1.405       .  A
C1783      H1787   1.084       .  S
C1785      H1788   1.084       .  S
C1789      C1790   1.408       .  A
C1789      C1794   1.398       .  A
C1789      H1796   1.082       .  S
C1790      C1791   1.411       .  A
C1791      C1792   1.395       .  A
C1791     Br1798   1.912       .  S
C1792      C1793   1.403       .  A
C1792      H1797   1.084       .  S
C1793      C1794   1.408       .  A
C1799      H1806   1.084       .  S
C1800      C1801   1.413       .  A
C1801      C1802   1.398       .  A
C1801     Br1808   1.922       .  S
C1802      C1803   1.405       .  A
C1802      H1807   1.083       .  S
C1803      C1804   1.417       .  A
C1809      C1810   1.402       .  A
C1809      C1814   1.397       .  A
C1809      H1816   1.084       .  S
C1810      C1811   1.409       .  A
C1811      C1812   1.397       .  A
C1811     Br1818   1.921       .  S
C1812      C1813   1.408       .  A
C1812      H1817   1.083       .  S
C1813      C1814   1.414       .  A
C1814     Br1815   1.913       .  S
C1819      C1820   1.406       .  A
C1819      C1824   1.396       .  A
C1819      H1826   1.084       .  S
C1820      C1821   1.411       .  A
C1821      C1822   1.400       .  A
C1821     Br1828   1.914       .  S
C1822      C1823   1.404       .  A
C1822      H1827   1.083       .  S
C1823      C1824   1.410       .  A
C1824     Br1825   1.922       .  S
C1829      C1830   1.405       .  A
C1829      C1834   1.399       .  A
C1829      H1836   1.083       .  S
C1830      C1831   1.411       .  A
C1831      C1832   1.395       .  A
C1831     Br1838   1.923       .  S
C1832      C1833   1.405       .  A
C1832      H1837   1.083       .  S
C1833      C1834   1.411       .  A
C1834     Br1835   1.920       .  S
C1839      C1840   1.406       .  A
C1839      C1844   1.402       .  A
C1839      H1846   1.084       .  S
C1840      C1841   1.408       .  A
C1841      C1842   1.393       .  A
C1841     Br1848   1.915       .  S
C1842      C1843   1.404       .  A
C1842      H1847   1.083       .  S
C1843      C1844   1.415       .  A
C1844     Br1845   1.922       .  S
C1849      C1850   1.415       .  A
C1849      C1854   1.419       .  A
C1849      C2107   1.488       .  S
C1850      C1851   1.401       .  A
C1850      H1855   1.083       .  S
C1851      C1852   1.405       .  A
C1851      C1928   1.490       .  S
C1852      C1853   1.405       .  A
C1852      H1856   1.083       .  S
C1853      C1854   1.399       .  A
C1853      C1975   1.495       .  S
C1854      H1857   1.083       .  S
C1858      C1859   1.415       .  A
C1858      C1863   1.411       .  A
C1858      C2094   1.481       .  S
C1859      C1860   1.401       .  A
C1859      H1864   1.083       .  S
C1860      C1861   1.408       .  A
C1860      C1913   1.494       .  S
C1861      C1862   1.407       .  A
C1861      H1865   1.084       .  S
C1862      C1863   1.399       .  A
C1862      C1974   1.489       .  S
C1863      H1866   1.084       .  S
C1867      C1868   1.404       .  A
C1867      C1872   1.410       .  A
C1867      C2104   1.484       .  S
C1868      C1869   1.402       .  A
C1868      H1873   1.083       .  S
C1869      C1870   1.400       .  A
C1869      C2097   1.484       .  S
C1870      C1871   1.402       .  A
C1870      H1874   1.084       .  S
C1871      C1872   1.407       .  A
C1871      C2084   1.486       .  S
C1872      H1875   1.083       .  S
C1876      C1877   1.414       .  A
C1876      C1881   1.410       .  A
C1876      C2087   1.482       .  S
C1877      C1878   1.404       .  A
C1877      H1882   1.083       .  S
C1878      C1879   1.394       .  A
C1878      C1973   1.479       .  S
C1879      C1880   1.393       .  A
C1880      C1881   1.400       .  A
C1880      C1921   1.474       .  S
C1881      H1884   1.083       .  S
Zr1885     O1887   2.401       .  S
Zr1885     O1891   2.390       .  S
Zr1885     O1893   2.369       .  S
Zr1885     O1894   2.366       .  S
Zr1885     O1896   2.384       .  S
O1886      H1942   0.989   1_655  S
O1887      C1907   1.281       .  A
O1888      C1909   1.277       .  A
O1889      C1908   1.294       .  A
O1890     Zr1898   2.480       .  S
O1890      C1909   1.292       .  A
O1891      C1908   1.279       .  A
O1892     Zr1900   2.424       .  S
O1892      C1907   1.279       .  A
O1893     Zr1900   2.383       .  S
O1894     Zr1900   2.380       .  S
O1894      H1929   0.966       .  S
O1895      H1932   0.966       .  S
Zr1897     O1924   2.390       .  S
Zr1897     O1903   2.381       .  S
Zr1897     O1904   2.385       .  S
Zr1897     O1906   2.371       .  S
Zr1897     O1922   2.436       .  S
Zr1898     O1910   2.434       .  S
Zr1899     O1925   2.478   1_554  S
Zr1899     O1903   2.403   1_554  S
Zr1899     O1906   2.393   1_554  S
Zr1899     O1901   2.434       .  S
Zr1900     O1926   2.435       .  S
Zr1900     O1902   2.437       .  S
O1901      H1938   0.990       .  S
O1902      H1933   0.990       .  S
O1902      H1947   0.990       .  S
O1904      H1930   0.966       .  S
C1907      C2019   1.477       .  S
C1908      C2028   1.495       .  S
C1909      C2046   1.491       .  S
O1910      H1946   0.990       .  S
O1911      C1913   1.295       .  A
O1912      C1913   1.279       .  A
O1914      H1943   0.990       .  S
Zr1915     O1920   2.428       .  S
Zr1915     O1918   2.438       .  S
O1917      H1934   0.990       .  S
O1918      H1935   0.990       .  S
O1919      H1939   0.990       .  S
O1919      H1948   0.990       .  S
O1920      C1921   1.280       .  A
O1922      H1941   0.990       .  S
O1922      H1945   0.990       .  S
O1923      H1937   0.990       .  S
O1923      H1944   0.990       .  S
O1924      C1928   1.280       .  A
O1925      C1928   1.293       .  A
O1926      H1936   0.990       .  S
O1927      H1940   0.990       .  S
Zr1951     O1954   2.385       .  S
Zr1951     O1961   2.393       .  S
Zr1951     O1962   2.387       .  S
Zr1951     O1952   2.432       .  S
Zr1951     O1959   2.263       .  S
O1952      H2008   0.989       .  S
O1952      H2016   0.990       .  S
O1954      C1975   1.276       .  A
O1955     Zr1965   2.477       .  S
O1955      C1974   1.292       .  A
O1956     Zr1964   2.483       .  S
O1956      C1975   1.292       .  A
O1957      C1974   1.279       .  A
O1958     Zr1966   2.428       .  S
O1958      C1973   1.279       .  A
O1959     Zr1964   2.298       .  S
O1960     Zr1965   2.398       .  S
O1961     Zr1964   2.407       .  S
O1961     Zr1981   2.402       .  S
O1961      H1998   0.966       .  S
O1962     Zr1981   2.400       .  S
Zr1963     O1982   2.393       .  S
Zr1963     O1978   2.385       .  S
Zr1963     O1970   2.390       .  S
Zr1963     O1972   2.370       .  S
Zr1963     O1971   2.262       .  S
Zr1964     O1977   2.490       .  S
Zr1964     O1970   2.402       .  S
Zr1964     O1983   2.436       .  S
Zr1964     O1976   2.435       .  S
Zr1964     O1971   2.290       .  S
Zr1965     O1991   2.480       .  S
Zr1965     O1967   2.435       .  S
Zr1966     O1969   2.399       .  S
Zr1966     O1992   2.436       .  S
Zr1966     O1993   2.436       .  S
O1967      H2004   0.990       .  S
O1968      H1999   0.990       .  S
O1968      H2013   0.990       .  S
O1971     Zr1981   2.284       .  S
O1972     Zr1981   2.380       .  S
O1972      H1997   0.966       .  S
O1977      C1979   1.294       .  A
O1978      C1979   1.278       .  A
C1979      C2030   1.495       .  S
O1980     Zr1981   2.438       .  S
O1980      H2009   0.990       .  S
Zr1981     O1986   2.438       .  S
Zr1981     O1984   2.437       .  S
Zr1981     O1985   2.440       .  S
O1982      C1987   1.280       .  A
O1983      H2000   0.990       .  S
O1983      H2015   0.990       .  S
O1984      H2001   0.990       .  S
O1985      H2005   0.990       .  S
O1985      H2014   0.990       .  S
O1986      C1987   1.282       .  A
C1987      C2021   1.478       .  S
O1988      H2011   0.990       .  S
O1989      H2003   0.990       .  S
O1989      H2010   0.990       .  S
O1990      C1994   1.279       .  A
O1991      C1994   1.293       .  A
O1992      H2002   0.990       .  S
C1994      C2048   1.492       .  S
C2017      C2018   1.411       .  A
C2017      C2022   1.413       .  A
C2017      C2074   1.480       .  S
C2018      C2019   1.402       .  A
C2018      H2023   1.083       .  S
C2019      C2020   1.394       .  A
C2020      C2021   1.395       .  A
C2020      H2024   1.083       .  S
C2021      C2022   1.400       .  A
C2022      H2025   1.083       .  S
C2026      C2027   1.416       .  A
C2026      C2031   1.414       .  A
C2027      C2028   1.402       .  A
C2027      H2032   1.084       .  S
C2028      C2029   1.408       .  A
C2029      C2030   1.408       .  A
C2029      H2033   1.084       .  S
C2030      C2031   1.400       .  A
C2031      H2034   1.083       .  S
C2035      C2036   1.408       .  A
C2035      C2040   1.404       .  A
C2035      C2054   1.486       .  S
C2036      C2037   1.408       .  A
C2036      H2041   1.083       .  S
C2037      C2038   1.407       .  A
C2037      C2077   1.491       .  S
C2038      C2039   1.403       .  A
C2038      H2042   1.083       .  S
C2039      C2040   1.400       .  A
C2039      C2067   1.489       .  S
C2040      H2043   1.083       .  S
C2044      C2045   1.413   1_655  A
C2044      C2049   1.414   1_655  A
C2044      C2057   1.479       .  S
C2045      H2050   1.083   1_455  S
C2046      C2047   1.408       .  A
C2047      C2048   1.405       .  A
C2047      H2051   1.084       .  S
C2049      H2052   1.084       .  S
C2053      C2054   1.408       .  A
C2053      C2058   1.398       .  A
C2053      H2060   1.082       .  S
C2054      C2055   1.411       .  A
C2055      C2056   1.395       .  A
C2055     Br2062   1.912       .  S
C2056      C2057   1.403       .  A
C2056      H2061   1.084       .  S
C2057      C2058   1.408       .  A
C2063      H2070   1.084       .  S
C2064      C2065   1.413       .  A
C2065      C2066   1.398       .  A
C2065     Br2072   1.922       .  S
C2066      C2067   1.405       .  A
C2066      H2071   1.083       .  S
C2067      C2068   1.417       .  A
C2073      C2074   1.402       .  A
C2073      C2078   1.397       .  A
C2073      H2080   1.084       .  S
C2074      C2075   1.409       .  A
C2075      C2076   1.397       .  A
C2075     Br2082   1.921       .  S
C2076      C2077   1.408       .  A
C2076      H2081   1.083       .  S
C2077      C2078   1.414       .  A
C2078     Br2079   1.913       .  S
C2083      C2084   1.406       .  A
C2083      C2088   1.396       .  A
C2083      H2090   1.084       .  S
C2084      C2085   1.411       .  A
C2085      C2086   1.400       .  A
C2085     Br2092   1.914       .  S
C2086      C2087   1.404       .  A
C2086      H2091   1.083       .  S
C2087      C2088   1.410       .  A
C2088     Br2089   1.922       .  S
C2093      C2094   1.405       .  A
C2093      C2098   1.399       .  A
C2093      H2100   1.083       .  S
C2094      C2095   1.411       .  A
C2095      C2096   1.395       .  A
C2095     Br2102   1.923       .  S
C2096      C2097   1.405       .  A
C2096      H2101   1.083       .  S
C2097      C2098   1.411       .  A
C2098     Br2099   1.920       .  S
C2103      C2104   1.406       .  A
C2103      C2108   1.402       .  A
C2103      H2110   1.084       .  S
C2104      C2105   1.408       .  A
C2105      C2106   1.393       .  A
C2105     Br2112   1.915       .  S
C2106      C2107   1.404       .  A
C2106      H2111   1.083       .  S
C2107      C2108   1.415       .  A
C2108     Br2109   1.922       .  S
