geometry optimzed in LAMMPS
_audit_creation_date              2020-12-01 
_audit_creation_method            'lammps2cif' 
_symmetry_space_group_name_H-M    'P1' 
_symmetry_Int_Tables_number       1 
_symmetry_cell_setting            triclinic 
loop_ 
_symmetry_equiv_pos_as_xyz 
  x,y,z 
_cell_length_a                    31.89116929 
_cell_length_b                    31.202111259991156 
_cell_length_c                    33.07562249187918 
_cell_angle_alpha                 89.87206600270646 
_cell_angle_beta                  90.685446017005 
_cell_angle_gamma                 119.16923758307296 
loop_ 
_atom_site_label 
_atom_site_type_symbol 
_atom_site_fract_x 
_atom_site_fract_y 
_atom_site_fract_z 
_atom_site_charge 
O1          O  0.26566221  0.07324449  0.71848128    -0.81800
C2          C  0.43243371  0.21438129  0.79659312     0.97600
O3          O  0.41235675  0.16919646  0.78870764    -0.70900
O4          O  0.33848632  0.08263329  0.78252641    -0.74500
Al5        Al  0.37372507  0.13431013  0.74439400     1.49000
C6          C  0.30819613  0.07930293  0.80831088     0.92800
O7          O  0.26649152  0.17098911  0.79004601    -0.80700
O8          O  0.31197962  0.23056671  0.71846654    -0.74200
Al9        Al  0.27352503  0.12638183  0.75366507     1.90100
O10         O  0.34026898  0.23060445  0.79811309    -0.73300
O11         O  0.38929237  0.23039887  0.69480886    -0.73200
O12         O  0.42315130  0.24223826  0.77497162    -0.78800
O13         O  0.41710996  0.17949471  0.70518475    -0.77000
O14         O  0.33710125  0.16290357  0.74833669    -1.13200
O15         O  0.33907583  0.09686949  0.69980193    -0.72400
C16         C  0.29460747  0.07257723  0.69306240     0.98400
C17         C  0.29839451  0.20500594  0.81156013     0.94800
Al18       Al  0.36408816  0.22825652  0.74670014     1.55600
O19         O  0.28062833  0.09680509  0.80133569    -0.77000
C20         C  0.41142404  0.20883421  0.68234170     0.98900
C21         C  0.27920404  0.19785857  0.69679797     0.93800
O22         O  0.26126508  0.15328096  0.70639142    -0.82300
C23         C  0.05572538  0.04810518  0.01767871     0.80300
N24         N  0.05492456  0.00456425  0.01246291    -0.78000
C25         C  0.51325986  0.46151403  0.00778457     0.82700
N26         N  0.47081606  0.46241852  0.00842705    -0.78000
C27         C  0.46993003  0.00562561  0.01365421     0.82800
N28         N  0.01290426  0.04822890  0.01782341    -0.79700
N29         N  0.28544164  0.00321208  0.00503749    -0.03400
C30         C  0.27304030  0.01633845  0.96930106    -0.00800
C31         C  0.23024684  0.01646466  0.97202735    -0.23700
C32         C  0.21517025  0.50370298  0.01053920    -0.23900
C33         C  0.24848269  0.49466699  0.03087700    -0.00900
H34         H  0.21240566  0.02602821  0.94849441     0.12800
H35         H  0.18267745  0.50137913  0.02251284     0.12900
N36         N  0.24140908  0.22688822  0.00939146    -0.03400
C37         C  0.27008867  0.24400471  0.97599009    -0.00800
C38         C  0.30983048  0.28907494  0.98399256    -0.23700
C39         C  0.30719595  0.30016865  0.02296199    -0.23900
C40         C  0.26504058  0.26269517  0.03809465    -0.03700
H41         H  0.33860159  0.31124523  0.96351855     0.12800
H42         H  0.33287633  0.33325444  0.03860581     0.12900
N43         N  0.54343254  0.29429588  0.98168796    -0.03400
C44         C  0.06635100  0.28074098  0.00983104    -0.00800
C45         C  0.07971086  0.24874209  0.99315729    -0.23700
C46         C  0.56468363  0.24180530  0.95388115    -0.23900
C47         C  0.54068006  0.26811561  0.94770875    -0.00900
H48         H  0.09813476  0.23180747  0.00813895     0.12800
H49         H  0.56865036  0.21785869  0.93247063     0.12900
O50         O  0.21837626  0.42273151  0.21892389    -0.81800
C51         C  0.06630279  0.26505785  0.29709403     0.97600
O52         O  0.07821116  0.30892047  0.28906999    -0.70900
O53         O  0.14155644  0.40040629  0.28404261    -0.74500
Al54       Al  0.11330318  0.34807512  0.24519340     1.49000
C55         C  0.17635343  0.41303948  0.30841310     0.92800
O56         O  0.23651687  0.33817201  0.29218844    -0.80700
O57         O  0.19700012  0.27321546  0.22002997    -0.74200
Al58       Al  0.22034585  0.37510732  0.25485103     1.90100
O59         O  0.16967236  0.26828986  0.29877613    -0.73300
O60         O  0.11435090  0.25979860  0.19505765    -0.73200
O61         O  0.08201751  0.24219809  0.27624641    -0.78800
O62         O  0.07469448  0.29929413  0.20581489    -0.77000
O63         O  0.15847844  0.32986010  0.24975013    -1.13200
O64         O  0.14329323  0.38916140  0.20027430    -0.72400
C65         C  0.18674339  0.41893762  0.19366989     0.98400
C66         C  0.21041167  0.29984426  0.31206795     0.94800
Al67       Al  0.14173450  0.26599032  0.24768180     1.55600
O68         O  0.20946803  0.40317409  0.30144979    -0.77000
C69         C  0.08803208  0.27678735  0.18213203     0.98900
C70         C  0.22520133  0.30820300  0.19814412     0.93800
O71         O  0.23713067  0.35158337  0.20833460    -0.82300
C72         C  0.98429194  0.03710075  0.50161533     0.80300
N73         N  0.02675406  0.03641887  0.50259500    -0.78000
C74         C  0.02787961  0.49340752  0.50659499     0.82700
N75         N  0.48530000  0.45077375  0.50918193    -0.78000
C76         C  0.44271611  0.45092144  0.50850085     0.82800
N77         N  0.44266907  0.49411963  0.50445042    -0.79700
N78         N  0.21088860  0.49618016  0.50111863    -0.03400
C79         C  0.22445728  0.48620511  0.46512413    -0.00800
C80         C  0.26573578  0.48284950  0.46946772    -0.23700
C81         C  0.27783397  0.98988623  0.50948454    -0.23900
C82         C  0.24536278  0.00050393  0.52819861    -0.00900
H83         H  0.28477004  0.47552951  0.44601414     0.12800
H84         H  0.30798353  0.98843446  0.52335908     0.12900
N85         N  0.97120928  0.21436854  0.48341166    -0.03400
C86         C  0.46113859  0.23831069  0.51287186    -0.00800
C87         C  0.46323000  0.28043820  0.49744175    -0.23700
C88         C  0.97475516  0.28272980  0.45748804    -0.23900
C89         C  0.97819110  0.24116542  0.44907238    -0.00900
H90         H  0.45607884  0.30624692  0.51358836     0.12800
H91         H  0.98093715  0.31231072  0.43706928     0.12900
N92         N  0.25571556  0.27935734  0.51170138    -0.03400
C93         C  0.22979892  0.25088139  0.54317274    -0.00800
C94         C  0.18422535  0.21722314  0.53047629    -0.23700
C95         C  0.18097792  0.22511854  0.49011436    -0.23900
C96         C  0.22515854  0.26325236  0.47914114    -0.00900
H97         H  0.15788017  0.18771061  0.54841296     0.12800
H98         H  0.15031493  0.20406979  0.47043483     0.12900
C99         C  0.44184138  0.08209808  0.47767328    -0.20300
C100        C  0.98226575  0.08375212  0.49703148    -0.06800
C101        C  0.01813141  0.12923267  0.51292009     0.14000
C102        C  0.01422815  0.17174584  0.50681270    -0.20300
C103        C  0.97394386  0.16979347  0.48770979    -0.06800
C104        C  0.43729926  0.12450277  0.47299041     0.14000
C105        C  0.39353864  0.12101734  0.45230410    -0.23700
H106        H  0.41365700  0.04747483  0.46586886     0.15300
H107        H  0.04281603  0.20698149  0.51708558     0.15300
C108        C  0.05910255  0.13307665  0.53842706    -0.23600
H109        H  0.36682858  0.08234549  0.44520115     0.05600
H110        H  0.40392441  0.14171613  0.42357634     0.08800
H111        H  0.37633956  0.13655273  0.47202107     0.08800
H112        H  0.08371663  0.12618782  0.51956948     0.08800
H113        H  0.04515085  0.10615214  0.56350682     0.08800
H114        H  0.07974267  0.17009572  0.55228366     0.05500
C115        C  0.11829685  0.53832274  0.50204176    -0.20300
C116        C  0.07545376  0.49360586  0.50820810    -0.06800
C117        C  0.07973750  0.95076216  0.51545769     0.14000
C118        C  0.12532743  0.95397034  0.51547104    -0.20300
C119        C  0.16719912  0.49810965  0.50799230    -0.06800
C120        C  0.16372100  0.54093136  0.50153319     0.14000
C121        C  0.20721813  0.58973282  0.49365376    -0.23700
H122        H  0.11662518  0.57170938  0.49664499     0.15300
H123        H  0.12847391  0.92119709  0.51975036     0.15300
C124        C  0.03705537  0.90087874  0.52216795    -0.23600
H125        H  0.21022110  0.61620782  0.51732474     0.05600
H126        H  0.20334201  0.60374792  0.46375482     0.08800
H127        H  0.24093446  0.58762380  0.49396044     0.08800
H128        H  0.01367376  0.88953253  0.49475581     0.08800
H129        H  0.01685206  0.90161280  0.54900888     0.08800
H130        H  0.04780740  0.87242697  0.52775811     0.05500
C131        C  0.31579793  0.35848500  0.53946488    -0.20300
C132        C  0.30486075  0.31896215  0.51340884    -0.06800
C133        C  0.34132586  0.32126348  0.48795578     0.14000
C134        C  0.38650847  0.36420563  0.48758763    -0.20300
C135        C  0.39632789  0.40469531  0.51233685    -0.06800
C136        C  0.36079044  0.40105145  0.53948092     0.14000
C137        C  0.37012782  0.44154511  0.56911768    -0.23700
H138        H  0.28803554  0.35705048  0.55862441     0.15300
H139        H  0.41397224  0.36633830  0.46735601     0.15300
C140        C  0.33410659  0.27905978  0.46145193    -0.23600
H141        H  0.33968011  0.43071912  0.59010441     0.05600
H142        H  0.37513366  0.47481628  0.55290381     0.08800
H143        H  0.40269708  0.45042868  0.58757321     0.08800
H144        H  0.33433956  0.28911196  0.42921050     0.08800
H145        H  0.30012343  0.24510212  0.46794560     0.08800
H146        H  0.36392337  0.27090994  0.46654766     0.05500
C147        C  0.99262729  0.24429740  0.33545589    -0.20300
C148        C  0.03530268  0.24206236  0.33264876    -0.06800
C149        C  0.05194532  0.22734973  0.36711003     0.14000
C150        C  0.02981768  0.22268514  0.40457426    -0.20300
C151        C  0.99067709  0.23096492  0.40826886    -0.06800
C152        C  0.96931347  0.23762067  0.37260477     0.14000
C153        C  0.92199861  0.23769859  0.37325830    -0.23700
H154        H  0.97882217  0.25382822  0.30881869     0.15300
H155        H  0.04608684  0.21712068  0.43154073     0.15300
C156        C  0.09606036  0.22178316  0.36602048    -0.23600
H157        H  0.90874986  0.23837111  0.34217855     0.05600
H158        H  0.42522488  0.27024718  0.38927088     0.08800
H159        H  0.89444288  0.20397230  0.38819641     0.08800
H160        H  0.10201587  0.20713680  0.39488470     0.08800
H161        H  0.12751163  0.25830087  0.36152709     0.08800
H162        H  0.09280048  0.19613907  0.34144324     0.05500
C163        C  0.21137844  0.48615692  0.35314913    -0.20300
C164        C  0.17722001  0.43684689  0.34711105    -0.06800
C165        C  0.15023212  0.40854346  0.38029119     0.14000
C166        C  0.16133229  0.42874964  0.41932678    -0.20300
C167        C  0.19906525  0.47633192  0.42584949    -0.06800
C168        C  0.22230551  0.50641923  0.39225680     0.14000
C169        C  0.26053959  0.05910653  0.39798009    -0.23700
H170        H  0.23163184  0.50788201  0.32759123     0.15300
H171        H  0.14415393  0.40553019  0.44513447     0.15300
C172        C  0.11260639  0.35570723  0.37516781    -0.23600
H173        H  0.27498926  0.07743442  0.36862133     0.05600
H174        H  0.29083058  0.06131269  0.41625894     0.08800
H175        H  0.24512830  0.07951980  0.41365870     0.08800
H176        H  0.12899304  0.33501612  0.36154823     0.08800
H177        H  0.08327644  0.35340476  0.35536769     0.08800
H178        H  0.09660107  0.33821074  0.40444769     0.05500
C179        C  0.23468138  0.33128999  0.38173686    -0.20300
C180        C  0.22567950  0.29434323  0.35325515    -0.06800
C181        C  0.22458243  0.25074775  0.36617033     0.14000
C182        C  0.22981194  0.24401153  0.40755033    -0.20300
C183        C  0.23546386  0.27950721  0.43646706    -0.06800
C184        C  0.23877795  0.32403386  0.42328966     0.14000
C185        C  0.24265862  0.36222302  0.45297226    -0.23700
H186        H  0.23495758  0.36454441  0.37174178     0.15300
H187        H  0.22653552  0.20946859  0.41775053     0.15300
C188        C  0.21710370  0.21103747  0.33648759    -0.23600
H189        H  0.27797065  0.37868230  0.46875545     0.05600
H190        H  0.21339632  0.34568414  0.47538904     0.08800
H191        H  0.23929787  0.39182592  0.43734158     0.08800
H192        H  0.24531283  0.22638119  0.31308109     0.08800
H193        H  0.18124104  0.19595848  0.32173708     0.08800
H194        H  0.21912120  0.18022094  0.35153532     0.05500
C195        C  0.03301661  0.27636275  0.07833041    -0.20300
C196        C  0.07361059  0.29254093  0.05371920    -0.06800
C197        C  0.11809260  0.30405453  0.07210649     0.14000
C198        C  0.12020938  0.29491178  0.11332798    -0.20300
C199        C  0.07966935  0.27765736  0.13791537    -0.06800
C200        C  0.03576390  0.26985551  0.12040556     0.14000
C201        C  0.99143815  0.25259043  0.14556349    -0.23700
H202        H  0.99846817  0.26586100  0.06434174     0.15300
H203        H  0.15444379  0.30323971  0.12677580     0.15300
C204        C  0.16390694  0.32500162  0.04851224    -0.23600
H205        H  0.95967748  0.24579353  0.12675895     0.05600
H206        H  0.99697611  0.28084284  0.16847722     0.08800
H207        H  0.98344850  0.21784217  0.16101105     0.08800
H208        H  0.15965066  0.33481055  0.01716255     0.08800
H209        H  0.17645550  0.29772536  0.04708533     0.08800
H210        H  0.19172105  0.35877785  0.06357324     0.05500
C211        C  0.23436132  0.25014544  0.15092799    -0.20300
C212        C  0.24001807  0.29727237  0.15851275    -0.06800
C213        C  0.25325462  0.33070414  0.12602543     0.14000
C214        C  0.25621960  0.31525983  0.08733335    -0.20300
C215        C  0.24989865  0.26843630  0.07920854    -0.06800
C216        C  0.24086502  0.23593645  0.11189935     0.14000
C217        C  0.24077433  0.18799888  0.10662605    -0.23700
H218        H  0.22515873  0.22441685  0.17567537     0.15300
H219        H  0.26489051  0.34100612  0.06269171     0.15300
C220        C  0.26243857  0.38239287  0.13070517    -0.23600
H221        H  0.23851760  0.17005027  0.13616594     0.05600
H222        H  0.27437675  0.19435130  0.09180304     0.08800
H223        H  0.20938472  0.16221478  0.08826157     0.08800
H224        H  0.29180719  0.40264853  0.15305895     0.08800
H225        H  0.22877502  0.38081261  0.14039750     0.08800
H226        H  0.27320300  0.40326105  0.10194961     0.05500
C227        C  0.25085082  0.47798253  0.14703757    -0.20300
C228        C  0.20174422  0.44543454  0.15397683    -0.06800
C229        C  0.16983090  0.43193377  0.12044165     0.14000
C230        C  0.18842017  0.44367266  0.08137103    -0.20300
C231        C  0.23757931  0.47534082  0.07366089    -0.06800
C232        C  0.26884798  0.49430687  0.10772674     0.14000
C233        C  0.32086065  0.03141780  0.10378024    -0.23700
H234        H  0.27575091  0.48972338  0.17246521     0.15300
H235        H  0.16321499  0.42929779  0.05619243     0.15300
C236        C  0.11601361  0.40768305  0.12492322    -0.23600
H237        H  0.33795841  0.04643815  0.13365695     0.05600
H238        H  0.32473878  0.06266354  0.08506649     0.08800
H239        H  0.34010082  0.01340185  0.09074322     0.08800
H240        H  0.10692047  0.43015985  0.14523841     0.08800
H241        H  0.10141666  0.37045166  0.13729696     0.08800
H242        H  0.09736355  0.40408756  0.09549925     0.05500
C243        C  0.14412740  0.09354916  0.00315939    -0.20300
C244        C  0.10385845  0.09477508  0.01915397    -0.06800
C245        C  0.11177115  0.14001644  0.03607666     0.14000
C246        C  0.15628067  0.18304590  0.03058139    -0.20300
C247        C  0.19577577  0.18177185  0.01338319    -0.06800
C248        C  0.18998384  0.13542124  0.00233674     0.14000
C249        C  0.23182087  0.12792089  0.99268046    -0.23700
H250        H  0.14050842  0.05914942  0.99227796     0.15300
H251        H  0.16094022  0.21754741  0.04192442     0.15300
C252        C  0.07687253  0.14356229  0.06413735    -0.23600
H253        H  0.23159432  0.09971084  0.01323879     0.05600
H254        H  0.26688993  0.16126932  0.99774309     0.08800
H255        H  0.22892749  0.11539485  0.96086906     0.08800
H256        H  0.05004513  0.10715047  0.07554161     0.08800
H257        H  0.05907577  0.16216869  0.04891075     0.08800
H258        H  0.09634622  0.16536343  0.09134201     0.05500
C259        C  0.48867887  0.32668625  0.00147488    -0.20300
C260        C  0.53233953  0.33398852  0.98556182    -0.06800
C261        C  0.06775648  0.38215318  0.97583687     0.14000
C262        C  0.05925234  0.42170229  0.98214117    -0.20300
C263        C  0.51637667  0.41552542  0.99915924    -0.06800
C264        C  0.48039629  0.36686489  0.00872000     0.14000
C265        C  0.43409468  0.35708109  0.02786434    -0.23700
H266        H  0.46153382  0.28971609  0.00902552     0.15300
H267        H  0.08723933  0.45820179  0.97430714     0.15300
C268        C  0.11580209  0.39223285  0.95999344    -0.23600
H269        H  0.41112311  0.31757028  0.03495795     0.05600
H270        H  0.41371942  0.36797144  0.00675979     0.08800
H271        H  0.44165376  0.37820723  0.05651275     0.08800
H272        H  0.11117598  0.37036252  0.93230942     0.08800
H273        H  0.13495659  0.38264185  0.98331938     0.08800
H274        H  0.13878848  0.43149669  0.95229895     0.05500
C275        C  0.37225679  0.04588432  0.01833643    -0.20300
C276        C  0.32989411  0.00179401  0.01142297    -0.06800
C277        C  0.33336135  0.45911160  0.00457449     0.14000
C278        C  0.37885914  0.46129163  0.00609868    -0.20300
C279        C  0.42208709  0.00581056  0.01338420    -0.06800
C280        C  0.41777641  0.04883305  0.01958237     0.14000
C281        C  0.46009221  0.09849800  0.02823847    -0.23700
H282        H  0.36930188  0.07841845  0.02379025     0.15300
H283        H  0.38042024  0.42789345  0.00078584     0.15300
C284        C  0.28888467  0.41160309  0.99476587    -0.23600
H285        H  0.44957710  0.12741687  0.03156320     0.05600
H286        H  0.48602486  0.11001729  0.00308943     0.08800
H287        H  0.47674936  0.09681188  0.05727147     0.08800
H288        H  0.27194084  0.41553113  0.96656795     0.08800
H289        H  0.26297381  0.40191465  0.01974342     0.08800
H290        H  0.29697996  0.38115822  0.99039645     0.05500
C291        C  0.47651144  0.21708804  0.58314673    -0.20300
C292        C  0.44575078  0.22224108  0.55513466    -0.06800
C293        C  0.40371197  0.22121460  0.56952294     0.14000
C294        C  0.39610705  0.22033126  0.61107174    -0.20300
C295        C  0.42620530  0.21462781  0.63924388    -0.06800
C296        C  0.46613282  0.21112651  0.62486750     0.14000
C297        C  0.49901456  0.20327611  0.65325419    -0.23700
H298        H  0.50955168  0.21949902  0.57293283     0.15300
H299        H  0.36508144  0.22238140  0.62138398     0.15300
C300        C  0.36495754  0.21905066  0.54169833    -0.23600
H301        H  0.52973115  0.20409986  0.63708893     0.05600
H302        H  0.47903287  0.16684159  0.66789094     0.08800
H303        H  0.51359117  0.23252437  0.67672448     0.08800
H304        H  0.37131945  0.21460936  0.50953603     0.08800
H305        H  0.36159496  0.25258902  0.54547748     0.08800
H306        H  0.33041484  0.18643146  0.54928911     0.05500
C307        C  0.28608128  0.99681528  0.89978174    -0.20300
C308        C  0.30002977  0.03182407  0.93116715    -0.06800
C309        C  0.32212116  0.08204004  0.92105803     0.14000
C310        C  0.32602642  0.09570558  0.88044573    -0.20300
C311        C  0.30906789  0.06091881  0.84931268    -0.06800
C312        C  0.29069596  0.01098286  0.85876550     0.14000
C313        C  0.27293130  0.97275919  0.82585876    -0.23700
H314        H  0.26723034  0.95818682  0.90725201     0.15300
H315        H  0.34007240  0.13365396  0.87294554     0.15300
C316        C  0.33799654  0.12138506  0.95306046    -0.23600
H317        H  0.25882074  0.93523119  0.83836430     0.05600
H318        H  0.30286409  0.97996352  0.80523599     0.08800
H319        H  0.24367568  0.97408946  0.80832191     0.08800
H320        H  0.36645859  0.12107350  0.97206565     0.08800
H321        H  0.30762204  0.61523198  0.97247983     0.08800
H322        H  0.35296098  0.15852842  0.93971713     0.05500
C323        C  0.45364979  0.19686822  0.86403602    -0.20300
C324        C  0.46268285  0.23237164  0.83426771    -0.06800
C325        C  0.49485698  0.28238661  0.84388870     0.14000
C326        C  0.51856508  0.29468954  0.88209951    -0.20300
C327        C  0.50948827  0.25843577  0.91124848    -0.06800
C328        C  0.47499192  0.20915282  0.90231195     0.14000
C329        C  0.45949320  0.16871031  0.93335561    -0.23700
H330        H  0.42798819  0.15873354  0.85796399     0.15300
H331        H  0.54482547  0.33239389  0.88874479     0.15300
C332        C  0.50518504  0.32269535  0.81402728    -0.23600
H333        H  0.42827648  0.13407987  0.92254009     0.05600
H334        H  0.44926275  0.18014271  0.96165209     0.08800
H335        H  0.48835804  0.15967894  0.93993974     0.08800
H336        H  0.47206103  0.32496197  0.80776619     0.08800
H337        H  0.51861623  0.31536359  0.78548963     0.08800
H338        H  0.53280140  0.35904338  0.82580463     0.05500
C339        C  0.21941104  0.99773097  0.60070109    -0.20300
C340        C  0.25388706  0.01975936  0.57030381    -0.06800
C341        C  0.30028095  0.05782988  0.58111676     0.14000
C342        C  0.31237951  0.06956882  0.62164176    -0.20300
C343        C  0.27838853  0.04890732  0.65242490    -0.06800
C344        C  0.23073006  0.01297133  0.64165129     0.14000
C345        C  0.19204346  0.99029129  0.67284634    -0.23700
H346        H  0.18394582  0.46858510  0.59250714     0.15300
H347        H  0.34843849  0.09843185  0.62881602     0.15300
C348        C  0.33687623  0.08921907  0.55001685    -0.23600
H349        H  0.15780885  0.96128410  0.65946835     0.05600
H350        H  0.18485161  0.01872796  0.68599248     0.08800
H351        H  0.20344650  0.97343147  0.69714874     0.08800
H352        H  0.32000292  0.10299529  0.52775957     0.08800
H353        H  0.35222637  0.06888821  0.53437120     0.08800
H354        H  0.36785932  0.12147526  0.56406315     0.05500
C355        C  0.25711089  0.25238437  0.65620171    -0.20300
C356        C  0.26506505  0.21185954  0.65804414    -0.06800
C357        C  0.26311144  0.18708460  0.62175047     0.14000
C358        C  0.25752178  0.20551311  0.58476998    -0.20300
C359        C  0.24854731  0.24499679  0.58270454    -0.06800
C360        C  0.24557602  0.26706715  0.61917600     0.14000
C361        C  0.22778018  0.30371377  0.62043912    -0.23700
H362        H  0.25725031  0.27085261  0.68396587     0.15300
H363        H  0.25656615  0.18661860  0.55706144     0.15300
C364        C  0.26629351  0.14070957  0.62155865    -0.23600
H365        H  0.19609491  0.28979358  0.64042529     0.05600
H366        H  0.21639050  0.31012139  0.59027803     0.08800
H367        H  0.25646421  0.33917575  0.63272200     0.08800
H368        H  0.23522923  0.11158155  0.63784688     0.08800
H369        H  0.30017498  0.14747919  0.63657757     0.08800
H370        H  0.26537820  0.12697108  0.59045234     0.05500
C371        C  0.31060694  0.22240045  0.92525501    -0.20300
C372        C  0.26729409  0.22007505  0.93633702    -0.06800
C373        C  0.23216729  0.21044373  0.90594995     0.14000
C374        C  0.24203656  0.20393610  0.86537123    -0.20300
C375        C  0.28793807  0.21209854  0.85417403    -0.06800
C376        C  0.32298550  0.22335909  0.88496979     0.14000
C377        C  0.37453481  0.23893176  0.87614748    -0.23700
H378        H  0.33781673  0.23020657  0.94843084     0.15300
H379        H  0.21484502  0.19517725  0.84208380     0.15300
C380        C  0.18566419  0.20921525  0.91568813    -0.23600
H381        H  0.39648236  0.24436776  0.90396809     0.05600
H382        H  0.39104325  0.27419557  0.85945210     0.08800
H383        H  0.37592969  0.21048657  0.85771683     0.08800
H384        H  0.19293579  0.24416025  0.93040807     0.08800
H385        H  0.16425809  0.17813266  0.93612624     0.08800
H386        H  0.16366079  0.20421446  0.88801172     0.05500
O387        O  0.26569084  0.57329034  0.71846734    -0.81800
C388        C  0.43245630  0.71442395  0.79659499     0.97600
O389        O  0.41238156  0.66924091  0.78870453    -0.70900
O390        O  0.33851259  0.58268001  0.78253110    -0.74500
Al391      Al  0.37375204  0.63435407  0.74439239     1.49000
C392        C  0.30821595  0.57934543  0.80831154     0.92800
O393        O  0.26651133  0.67102614  0.79003862    -0.80700
O394        O  0.31201458  0.73061424  0.71845572    -0.74200
Al395      Al  0.27355102  0.62642486  0.75365605     1.90100
O396        O  0.34028520  0.73064624  0.79810924    -0.73300
O397        O  0.38933512  0.73045332  0.69481073    -0.73200
O398        O  0.42317309  0.74228405  0.77497896    -0.78800
O399        O  0.41713941  0.67953716  0.70518299    -0.77000
O400        O  0.33712865  0.66294862  0.74833204    -1.13200
O401        O  0.33910566  0.59691002  0.69979664    -0.72400
C402        C  0.29463812  0.57262005  0.69305188     0.98400
C403        C  0.29841122  0.70504093  0.81155591     0.94800
Al404      Al  0.36411635  0.72830324  0.74669859     1.55600
O405        O  0.28064639  0.59684347  0.80132888    -0.77000
C406        C  0.41146401  0.70888552  0.68234295     0.98900
C407        C  0.27923863  0.69790502  0.69678831     0.93800
O408        O  0.26129672  0.65332809  0.70638391    -0.82300
C409        C  0.05573223  0.54809889  0.01768312     0.80300
N410        N  0.05492808  0.50455535  0.01247003    -0.78000
C411        C  0.51325792  0.96152348  0.00777532     0.82700
N412        N  0.47081325  0.96242455  0.00841694    -0.78000
C413        C  0.46993500  0.50562191  0.01366199     0.82800
N414        N  0.01291149  0.54822468  0.01782812    -0.79700
N415        N  0.28544607  0.50322178  0.00504511    -0.03400
C416        C  0.27304145  0.51634417  0.96930677    -0.00800
C417        C  0.23024500  0.51646479  0.97203394    -0.23700
C418        C  0.21517161  0.00370267  0.01053249    -0.23900
C419        C  0.24848057  0.99466046  0.03087031    -0.00900
H420        H  0.21240025  0.52602336  0.94850071     0.12800
H421        H  0.18268173  0.00138579  0.02250631     0.12900
N422        N  0.24142818  0.72687544  0.00940238    -0.03400
C423        C  0.27010799  0.74398679  0.97600082    -0.00800
C424        C  0.30985098  0.78905729  0.98400162    -0.23700
C425        C  0.30721697  0.80015506  0.02297024    -0.23900
C426        C  0.26506075  0.76268511  0.03810336    -0.03700
H427        H  0.33862119  0.81122658  0.96352638     0.12800
H428        H  0.33289592  0.83324275  0.03861287     0.12900
N429        N  0.54343588  0.79431464  0.98169261    -0.03400
C430        C  0.06635405  0.78076190  0.00983623    -0.00800
C431        C  0.07970301  0.74875200  0.99316791    -0.23700
C432        C  0.56466901  0.74180697  0.95389356    -0.23900
C433        C  0.54067372  0.76812486  0.94771826    -0.00900
H434        H  0.09812604  0.73181768  0.00815159     0.12800
H435        H  0.56862806  0.71785281  0.93248592     0.12900
O436        O  0.21837930  0.92273777  0.21892714    -0.81800
C437        C  0.06630122  0.76506598  0.29708891     0.97600
O438        O  0.07821539  0.80893167  0.28907159    -0.70900
O439        O  0.14156723  0.90041754  0.28404376    -0.74500
Al440      Al  0.11330725  0.84808554  0.24519523     1.49000
C441        C  0.17636126  0.91304289  0.30841619     0.92800
O442        O  0.23651512  0.83816383  0.29218183    -0.80700
O443        O  0.19699387  0.77321691  0.22002196    -0.74200
Al444      Al  0.22034719  0.87510769  0.25484998     1.90100
O445        O  0.16966719  0.76828318  0.29876698    -0.73300
O446        O  0.11434999  0.75981467  0.19505185    -0.73200
O447        O  0.08201366  0.74220597  0.27623874    -0.78800
O448        O  0.07469199  0.79930547  0.20582008    -0.77000
O449        O  0.15847900  0.82986476  0.24974917    -1.13200
O450        O  0.14329754  0.88916857  0.20027391    -0.72400
C451        C  0.18674846  0.91894348  0.19367039     0.98400
C452        C  0.21040728  0.79983485  0.31205939     0.94800
Al453      Al  0.14173035  0.76599431  0.24767469     1.55600
O454        O  0.20947231  0.90317190  0.30145269    -0.77000
C455        C  0.08803345  0.77680811  0.18213102     0.98900
C456        C  0.22520014  0.80820553  0.19813963     0.93800
O457        O  0.23712979  0.85158596  0.20833065    -0.82300
C458        C  0.98429884  0.53712614  0.50164708     0.80300
N459        N  0.02676156  0.53644533  0.50262005    -0.78000
C460        C  0.02786930  0.99338014  0.50657845     0.82700
N461        N  0.48528884  0.95074839  0.50916973    -0.78000
C462        C  0.44270668  0.95089828  0.50848001     0.82800
N463        N  0.44266196  0.99409593  0.50441924    -0.79700
N464        N  0.21087040  0.99614082  0.50113219    -0.03400
C465        C  0.22444299  0.98616264  0.46514158    -0.00800
C466        C  0.26571826  0.98280246  0.46949233    -0.23700
C467        C  0.27785837  0.48993319  0.50945878    -0.23900
C468        C  0.24538803  0.50054662  0.52818042    -0.00900
H469        H  0.28475563  0.97547971  0.44604258     0.12800
H470        H  0.30801037  0.48848044  0.52332757     0.12900
N471        N  0.97123639  0.71440154  0.48340879    -0.03400
C472        C  0.46116613  0.73834624  0.51286663    -0.00800
C473        C  0.46323861  0.78046162  0.49742761    -0.23700
C474        C  0.97475769  0.78274647  0.45747271    -0.23900
C475        C  0.97820273  0.74118605  0.44906427    -0.00900
H476        H  0.45607324  0.80626364  0.51356841     0.12800
H477        H  0.98092444  0.81231706  0.43704754     0.12900
N478        N  0.25569113  0.77936552  0.51169703    -0.03400
C479        C  0.22978283  0.75089301  0.54317194    -0.00800
C480        C  0.18420833  0.71723151  0.53048199    -0.23700
C481        C  0.18094945  0.72512591  0.49012127    -0.23900
C482        C  0.22512702  0.76325911  0.47914208    -0.00900
H483        H  0.15787364  0.68771566  0.54842183     0.12800
H484        H  0.15028326  0.70407411  0.47044560     0.12900
C485        C  0.44184751  0.58212377  0.47770553    -0.20300
C486        C  0.98227407  0.58377826  0.49705948    -0.06800
C487        C  0.01814918  0.62926272  0.51293391     0.14000
C488        C  0.01425450  0.67177911  0.50681452    -0.20300
C489        C  0.97397020  0.66982679  0.48771191    -0.06800
C490        C  0.43731475  0.62453219  0.47300932     0.14000
C491        C  0.39355242  0.62104689  0.45232603    -0.23700
H492        H  0.41365535  0.54749802  0.46591276     0.15300
H493        H  0.04284751  0.70701631  0.51707950     0.15300
C494        C  0.05911963  0.63310691  0.53844105    -0.23600
H495        H  0.36682492  0.58237225  0.44525053     0.05600
H496        H  0.40393245  0.64171576  0.42358387     0.08800
H497        H  0.37637572  0.63661666  0.47203164     0.08800
H498        H  0.08372907  0.62620876  0.51958531     0.08800
H499        H  0.04516736  0.60618874  0.56352525     0.08800
H500        H  0.07976225  0.67012853  0.55229228     0.05500
C501        C  0.11829021  0.03829699  0.50207162    -0.20300
C502        C  0.07544061  0.99357457  0.50820041    -0.06800
C503        C  0.07975966  0.45080378  0.51549522     0.14000
C504        C  0.12535240  0.45401605  0.51550041    -0.20300
C505        C  0.16718051  0.99806986  0.50799957    -0.06800
C506        C  0.16371293  0.04090199  0.50157283     0.14000
C507        C  0.20722024  0.08971105  0.49374176    -0.23700
H508        H  0.11662590  0.07169162  0.49669902     0.15300
H509        H  0.12850440  0.42124877  0.51980198     0.15300
C510        C  0.03708257  0.40092793  0.52225076    -0.23600
H511        H  0.21020702  0.11615183  0.51743806     0.05600
H512        H  0.20337132  0.10377050  0.46385524     0.08800
H513        H  0.24093328  0.08759616  0.49404951     0.08800
H514        H  0.01368443  0.38954275  0.49484843     0.08800
H515        H  0.01689416  0.40169903  0.54908921     0.08800
H516        H  0.04783881  0.37248434  0.52786886     0.05500
C517        C  0.31577881  0.85850085  0.53943921    -0.20300
C518        C  0.30483740  0.81896611  0.51339670    -0.06800
C519        C  0.34130157  0.82124474  0.48795532     0.14000
C520        C  0.38649084  0.86417832  0.48758427    -0.20300
C521        C  0.39631705  0.90467790  0.51232346    -0.06800
C522        C  0.36077986  0.90105479  0.53945808     0.14000
C523        C  0.37012543  0.94155744  0.56908817    -0.23700
H524        H  0.28801552  0.85708359  0.55858705     0.15300
H525        H  0.41395298  0.86629698  0.46735829     0.15300
C526        C  0.33407107  0.77902814  0.46146312    -0.23600
H527        H  0.33967586  0.93074449  0.59007028     0.05600
H528        H  0.37514484  0.97483024  0.55286909     0.08800
H529        H  0.40268902  0.95043321  0.58754929     0.08800
H530        H  0.33430255  0.78906950  0.42921908     0.08800
H531        H  0.30008458  0.74507734  0.46796452     0.08800
H532        H  0.36388363  0.77087284  0.46656148     0.05500
C533        C  0.99261845  0.74428689  0.33544693    -0.20300
C534        C  0.03530231  0.74206781  0.33264214    -0.06800
C535        C  0.05195780  0.72737460  0.36710625     0.14000
C536        C  0.02983404  0.72271500  0.40457054    -0.20300
C537        C  0.99068276  0.73097688  0.40826239    -0.06800
C538        C  0.96930700  0.73761245  0.37259693     0.14000
C539        C  0.92198247  0.73767042  0.37325060    -0.23700
H540        H  0.97880477  0.75380365  0.30880710     0.15300
H541        H  0.04611449  0.71717060  0.43153901     0.15300
C542        C  0.09608577  0.72183116  0.36601975    -0.23600
H543        H  0.90873527  0.73834763  0.34217112     0.05600
H544        H  0.42519287  0.77020773  0.38927092     0.08800
H545        H  0.89443274  0.70393445  0.38818125     0.08800
H546        H  0.10204843  0.70719225  0.39488517     0.08800
H547        H  0.12752690  0.75835579  0.36152585     0.08800
H548        H  0.09283855  0.69619060  0.34144414     0.05500
C549        C  0.21139181  0.98614968  0.35316656    -0.20300
C550        C  0.17722572  0.93684434  0.34711709    -0.06800
C551        C  0.15021996  0.90853746  0.38028906     0.14000
C552        C  0.16132298  0.92872596  0.41932989    -0.20300
C553        C  0.19906175  0.97630145  0.42586342    -0.06800
C554        C  0.22231016  0.00639942  0.39227867     0.14000
C555        C  0.26053853  0.55912804  0.39794353    -0.23700
H556        H  0.23165356  0.00788115  0.32761439     0.15300
H557        H  0.14413502  0.90549894  0.44513153     0.15300
C558        C  0.11256325  0.85571675  0.37515035    -0.23600
H559        H  0.27498151  0.57744399  0.36857959     0.05600
H560        H  0.29083440  0.56134111  0.41622017     0.08800
H561        H  0.24513273  0.57954974  0.41361620     0.08800
H562        H  0.12892755  0.83500717  0.36152744     0.08800
H563        H  0.08325035  0.85345049  0.35534731     0.08800
H564        H  0.09654034  0.83821627  0.40442477     0.05500
C565        C  0.23462663  0.83127419  0.38173080    -0.20300
C566        C  0.22566584  0.79433833  0.35325069    -0.06800
C567        C  0.22458560  0.75075283  0.36617212     0.14000
C568        C  0.22980251  0.74401969  0.40755524    -0.20300
C569        C  0.23542667  0.77950927  0.43646768    -0.06800
C570        C  0.23870799  0.82401971  0.42328554     0.14000
C571        C  0.24253284  0.86218861  0.45296438    -0.23700
H572        H  0.23487913  0.86451549  0.37173158     0.15300
H573        H  0.22654021  0.70948443  0.41776001     0.15300
C574        C  0.21713618  0.71104942  0.33649312    -0.23600
H575        H  0.27782908  0.87866169  0.46877496     0.05600
H576        H  0.21324817  0.84562502  0.47535942     0.08800
H577        H  0.23916399  0.89178307  0.43732644     0.08800
H578        H  0.24535694  0.72640321  0.31309687     0.08800
H579        H  0.18127993  0.69596096  0.32172904     0.08800
H580        H  0.21915808  0.68023838  0.35154701     0.05500
C581        C  0.03302927  0.77640988  0.07833189    -0.20300
C582        C  0.07362040  0.79257416  0.05372056    -0.06800
C583        C  0.11810062  0.80408066  0.07210636     0.14000
C584        C  0.12021536  0.79493625  0.11332762    -0.20300
C585        C  0.07967600  0.77769129  0.13791527    -0.06800
C586        C  0.03577512  0.76990384  0.12040632     0.14000
C587        C  0.99145037  0.75265144  0.14556299    -0.23700
H588        H  0.99848184  0.76591298  0.06434384     0.15300
H589        H  0.15444686  0.80325149  0.12677448     0.15300
C590        C  0.16391247  0.82501861  0.04850931    -0.23600
H591        H  0.95969331  0.74586443  0.12675766     0.05600
H592        H  0.99699586  0.78090688  0.16847621     0.08800
H593        H  0.98345005  0.71790009  0.16101034     0.08800
H594        H  0.15965471  0.83482680  0.01715920     0.08800
H595        H  0.17645563  0.79773767  0.04708356     0.08800
H596        H  0.19173007  0.85879482  0.06356739     0.05500
C597        C  0.23438400  0.75015395  0.15093505    -0.20300
C598        C  0.24002359  0.79727530  0.15851161    -0.06800
C599        C  0.25324970  0.83069941  0.12601964     0.14000
C600        C  0.25622195  0.81525219  0.08732989    -0.20300
C601        C  0.24991588  0.76843257  0.07921369    -0.06800
C602        C  0.24089437  0.73594314  0.11190954     0.14000
C603        C  0.24082346  0.68801501  0.10664300    -0.23700
H604        H  0.22519060  0.72443196  0.17568633     0.15300
H605        H  0.26488827  0.84099235  0.06268447     0.15300
C606        C  0.26241710  0.88238251  0.13069374    -0.23600
H607        H  0.23856152  0.67006738  0.13618420     0.05600
H608        H  0.27443579  0.69438074  0.09183038     0.08800
H609        H  0.20944504  0.66222564  0.08826999     0.08800
H610        H  0.29178905  0.90265007  0.15304203     0.08800
H611        H  0.22875075  0.88079242  0.14039117     0.08800
H612        H  0.27316868  0.90324385  0.10193467     0.05500
C613        C  0.25086150  0.97796812  0.14703094    -0.20300
C614        C  0.20175215  0.94543823  0.15397589    -0.06800
C615        C  0.16983460  0.93195169  0.12044478     0.14000
C616        C  0.18841749  0.94368718  0.08137199    -0.20300
C617        C  0.23757872  0.97533755  0.07365581    -0.06800
C618        C  0.26885668  0.99428543  0.10771825     0.14000
C619        C  0.32084281  0.53147053  0.10379300    -0.23700
H620        H  0.27576575  0.98969636  0.17245545     0.15300
H621        H  0.16320640  0.92932006  0.05619712     0.15300
C622        C  0.11601972  0.90771877  0.12493383    -0.23600
H623        H  0.33792667  0.54650969  0.13367018     0.05600
H624        H  0.32469958  0.56269989  0.08506761     0.08800
H625        H  0.34011052  0.51347667  0.09076918     0.08800
H626        H  0.10694184  0.93019505  0.14526347     0.08800
H627        H  0.10141304  0.87048062  0.13729513     0.08800
H628        H  0.09736739  0.90414501  0.09551474     0.05500
C629        C  0.14414171  0.59353740  0.00317923    -0.20300
C630        C  0.10386895  0.59476902  0.01915977    -0.06800
C631        C  0.11178148  0.64001637  0.03607092     0.14000
C632        C  0.15629559  0.68304287  0.03058051    -0.20300
C633        C  0.19579282  0.68176177  0.01339550    -0.06800
C634        C  0.19000029  0.63540837  0.00235987     0.14000
C635        C  0.23183954  0.62790720  0.99271647    -0.23700
H636        H  0.14052368  0.55913523  0.99230627     0.15300
H637        H  0.16095505  0.71754852  0.04191298     0.15300
C638        C  0.07687540  0.64357195  0.06411542    -0.23600
H639        H  0.23160902  0.59970023  0.01328072     0.05600
H640        H  0.26690749  0.66125717  0.99778021     0.08800
H641        H  0.22895316  0.61537860  0.96090666     0.08800
H642        H  0.05006283  0.60716553  0.07554092     0.08800
H643        H  0.05906321  0.66214774  0.04886543     0.08800
H644        H  0.09634348  0.66540602  0.09130872     0.05500
C645        C  0.48868793  0.82670522  0.00148845    -0.20300
C646        C  0.53234250  0.83400626  0.98556279    -0.06800
C647        C  0.06775355  0.88216808  0.97582372     0.14000
C648        C  0.05924438  0.92171495  0.98211826    -0.20300
C649        C  0.51637611  0.91553862  0.99915073    -0.06800
C650        C  0.48040720  0.86688338  0.00873544     0.14000
C651        C  0.43412525  0.85710773  0.02791406    -0.23700
H652        H  0.46154867  0.78973736  0.00905131     0.15300
H653        H  0.08722368  0.95821311  0.97427064     0.15300
C654        C  0.11579963  0.89224845  0.95998021    -0.23600
H655        H  0.41116511  0.81760170  0.03502946     0.05600
H656        H  0.41372516  0.86798116  0.00682241     0.08800
H657        H  0.44171389  0.87825330  0.05655481     0.08800
H658        H  0.11117506  0.87036427  0.93230558     0.08800
H659        H  0.13496218  0.88267555  0.98331234     0.08800
H660        H  0.13877828  0.93150906  0.95227092     0.05500
C661        C  0.37226181  0.54588682  0.01835645    -0.20300
C662        C  0.32989765  0.50180036  0.01143416    -0.06800
C663        C  0.33335843  0.95910476  0.00457082     0.14000
C664        C  0.37885668  0.96128794  0.00609724    -0.20300
C665        C  0.42209119  0.50581000  0.01339404    -0.06800
C666        C  0.41778070  0.54883145  0.01960281     0.14000
C667        C  0.46009673  0.59849171  0.02826967    -0.23700
H668        H  0.36930936  0.57842181  0.02381456     0.15300
H669        H  0.38041921  0.92788897  0.00079346     0.15300
C670        C  0.28888220  0.91159216  0.99477153    -0.23600
H671        H  0.44958417  0.62741211  0.03159758     0.05600
H672        H  0.48603308  0.61001592  0.00312328     0.08800
H673        H  0.47674688  0.59679525  0.05730368     0.08800
H674        H  0.27193422  0.91550977  0.96657217     0.08800
H675        H  0.26297445  0.90191170  0.01975050     0.08800
H676        H  0.29697849  0.88114675  0.99041027     0.05500
C677        C  0.47654756  0.71712891  0.58314494    -0.20300
C678        C  0.44578654  0.72228403  0.55513347    -0.06800
C679        C  0.40375108  0.72126201  0.56952468     0.14000
C680        C  0.39615273  0.72038851  0.61107370    -0.20300
C681        C  0.42624866  0.71468107  0.63924519    -0.06800
C682        C  0.46617032  0.71116918  0.62486691     0.14000
C683        C  0.49904530  0.70330655  0.65325261    -0.23700
H684        H  0.50958468  0.71953399  0.57293003     0.15300
H685        H  0.36512840  0.72244189  0.62138668     0.15300
C686        C  0.36499199  0.71909126  0.54170271    -0.23600
H687        H  0.52975959  0.70412546  0.63708717     0.05600
H688        H  0.47905661  0.66687074  0.66788620     0.08800
H689        H  0.51362541  0.73255129  0.67672584     0.08800
H690        H  0.37133980  0.71462195  0.50954273     0.08800
H691        H  0.36164311  0.75263934  0.54546663     0.08800
H692        H  0.33044654  0.68648478  0.54930913     0.05500
C693        C  0.28607191  0.49683325  0.89977633    -0.20300
C694        C  0.30002836  0.53183453  0.93116938    -0.06800
C695        C  0.32212390  0.58205278  0.92106665     0.14000
C696        C  0.32603321  0.59572917  0.88045548    -0.20300
C697        C  0.30907399  0.56095094  0.84931511    -0.06800
C698        C  0.29069067  0.51101170  0.85876149     0.14000
C699        C  0.27292050  0.47279656  0.82584792    -0.23700
H700        H  0.26721471  0.45820319  0.90723994     0.15300
H701        H  0.34008536  0.63367909  0.87296264     0.15300
C702        C  0.33800090  0.62139012  0.95307588    -0.23600
H703        H  0.25880496  0.43526468  0.83834623     0.05600
H704        H  0.30285162  0.48000186  0.80522281     0.08800
H705        H  0.24366757  0.47413709  0.80831510     0.08800
H706        H  0.36645960  0.62106983  0.97207984     0.08800
H707        H  0.30761688  0.11523033  0.97246270     0.08800
H708        H  0.35296760  0.65853685  0.93973908     0.05500
C709        C  0.45365210  0.69689724  0.86403942    -0.20300
C710        C  0.46269944  0.73240582  0.83427205    -0.06800
C711        C  0.49487968  0.78241767  0.84389633     0.14000
C712        C  0.51857707  0.79471260  0.88211076    -0.20300
C713        C  0.50948742  0.75845400  0.91125770    -0.06800
C714        C  0.47498592  0.70917496  0.90231823     0.14000
C715        C  0.45947190  0.66873157  0.93336260    -0.23700
H716        H  0.42798459  0.65876525  0.85796467     0.15300
H717        H  0.54484055  0.83241426  0.88875950     0.15300
C718        C  0.50522835  0.82273093  0.81403427    -0.23600
H719        H  0.42825774  0.63410331  0.92254102     0.05600
H720        H  0.44923378  0.68016684  0.96165363     0.08800
H721        H  0.48833056  0.65969497  0.93995937     0.08800
H722        H  0.47211313  0.82501138  0.80776590     0.08800
H723        H  0.51866160  0.81539355  0.78550027     0.08800
H724        H  0.53285085  0.85907464  0.82581475     0.05500
C725        C  0.21944345  0.49777032  0.60068788    -0.20300
C726        C  0.25391800  0.51979792  0.57028918    -0.06800
C727        C  0.30031390  0.55786593  0.58110359     0.14000
C728        C  0.31241226  0.56960774  0.62162937    -0.20300
C729        C  0.27842157  0.54894797  0.65241289    -0.06800
C730        C  0.23076391  0.51300973  0.64163871     0.14000
C731        C  0.19207891  0.49032766  0.67283469    -0.23700
H732        H  0.18391461  0.96854436  0.59251968     0.15300
H733        H  0.34847107  0.59847056  0.62880434     0.15300
C734        C  0.33691168  0.58925119  0.55000433    -0.23600
H735        H  0.15784797  0.46131064  0.65945958     0.05600
H736        H  0.18487824  0.51876130  0.68597455     0.08800
H737        H  0.20348919  0.47347964  0.69714158     0.08800
H738        H  0.32003829  0.60302041  0.52774047     0.08800
H739        H  0.35226668  0.56891884  0.53436812     0.08800
H740        H  0.36789111  0.62151241  0.56404926     0.05500
C741        C  0.25714329  0.75242722  0.65619298    -0.20300
C742        C  0.26509688  0.71190236  0.65803509    -0.06800
C743        C  0.26313172  0.68711880  0.62174319     0.14000
C744        C  0.25751876  0.70553203  0.58476347    -0.20300
C745        C  0.24854223  0.74501449  0.58269948    -0.06800
C746        C  0.24559307  0.76710013  0.61917005     0.14000
C747        C  0.22780935  0.80375646  0.62043669    -0.23700
H748        H  0.25729551  0.77090349  0.68395615     0.15300
H749        H  0.25655002  0.68662838  0.55705641     0.15300
C750        C  0.26632619  0.64075045  0.62155217    -0.23600
H751        H  0.19613998  0.78985409  0.64043978     0.05600
H752        H  0.21640008  0.81015154  0.59027975     0.08800
H753        H  0.25650792  0.83922160  0.63270176     0.08800
H754        H  0.23526779  0.61161974  0.63784393     0.08800
H755        H  0.30021296  0.64752940  0.63656705     0.08800
H756        H  0.26540939  0.62701007  0.59044624     0.05500
C757        C  0.31062124  0.72238917  0.92525624    -0.20300
C758        C  0.26730768  0.72005685  0.93634597    -0.06800
C759        C  0.23217975  0.71043384  0.90596176     0.14000
C760        C  0.24205155  0.70395027  0.86537724    -0.20300
C761        C  0.28795352  0.71211883  0.85417428    -0.06800
C762        C  0.32299934  0.72336447  0.88496856     0.14000
C763        C  0.37454696  0.73893746  0.87614194    -0.23700
H764        H  0.33783259  0.73019102  0.94842924     0.15300
H765        H  0.21486053  0.69520192  0.84209159     0.15300
C766        C  0.18567045  0.70918597  0.91571077    -0.23600
H767        H  0.39649421  0.74435831  0.90395990     0.05600
H768        H  0.39105771  0.77420870  0.85945698     0.08800
H769        H  0.37593622  0.71049863  0.85769843     0.08800
H770        H  0.19293240  0.74411681  0.93045178     0.08800
H771        H  0.16426765  0.67808509  0.93613388     0.08800
H772        H  0.16366829  0.70420143  0.88803675     0.05500
O773        O  0.76566217  0.07324453  0.71848125    -0.81800
C774        C  0.93243376  0.21438132  0.79659306     0.97600
O775        O  0.91235664  0.16919646  0.78870768    -0.70900
O776        O  0.83848633  0.08263331  0.78252636    -0.74500
Al777      Al  0.87372506  0.13431016  0.74439400     1.49000
C778        C  0.80819619  0.07930295  0.80831087     0.92800
O779        O  0.76649156  0.17098908  0.79004605    -0.80700
O780        O  0.81197966  0.23056671  0.71846651    -0.74200
Al781      Al  0.77352500  0.12638184  0.75366508     1.90100
O782        O  0.84026901  0.23060451  0.79811305    -0.73300
O783        O  0.88929243  0.23039887  0.69480883    -0.73200
O784        O  0.92315144  0.24223830  0.77497149    -0.78800
O785        O  0.91711006  0.17949476  0.70518477    -0.77000
O786        O  0.83710123  0.16290360  0.74833665    -1.13200
O787        O  0.83907581  0.09686951  0.69980194    -0.72400
C788        C  0.79460747  0.07257725  0.69306239     0.98400
C789        C  0.79839455  0.20500592  0.81156013     0.94800
Al790      Al  0.86408821  0.22825655  0.74670008     1.55600
O791        O  0.78062837  0.09680509  0.80133570    -0.77000
C792        C  0.91142415  0.20883424  0.68234170     0.98900
C793        C  0.77920402  0.19785857  0.69679798     0.93800
O794        O  0.76126494  0.15328096  0.70639148    -0.82300
C795        C  0.55572539  0.04810519  0.01767870     0.80300
N796        N  0.55492455  0.00456425  0.01246290    -0.78000
C797        C  0.01325979  0.46151402  0.00778457     0.82700
N798        N  0.97081605  0.46241852  0.00842705    -0.78000
C799        C  0.96993004  0.00562560  0.01365421     0.82800
N800        N  0.51290424  0.04822891  0.01782341    -0.79700
N801        N  0.78544173  0.00321209  0.00503750    -0.03400
C802        C  0.77304038  0.01633844  0.96930107    -0.00800
C803        C  0.73024692  0.01646467  0.97202734    -0.23700
C804        C  0.71517027  0.50370298  0.01053920    -0.23900
C805        C  0.74848272  0.49466700  0.03087699    -0.00900
H806        H  0.71240578  0.02602822  0.94849439     0.12800
H807        H  0.68267750  0.50137915  0.02251280     0.12900
N808        N  0.74140904  0.22688824  0.00939143    -0.03400
C809        C  0.77008869  0.24400473  0.97599007    -0.00800
C810        C  0.80983049  0.28907488  0.98399262    -0.23700
C811        C  0.80719596  0.30016860  0.02296201    -0.23900
C812        C  0.76504054  0.26269518  0.03809464    -0.03700
H813        H  0.83860172  0.31124524  0.96351854     0.12800
H814        H  0.83287638  0.33325443  0.03860588     0.12900
N815        N  0.04343256  0.29429586  0.98168795    -0.03400
C816        C  0.56635100  0.28074097  0.00983105    -0.00800
C817        C  0.57971086  0.24874212  0.99315727    -0.23700
C818        C  0.06468369  0.24180534  0.95388114    -0.23900
C819        C  0.04068012  0.26811567  0.94770873    -0.00900
H820        H  0.59813487  0.23180753  0.00813893     0.12800
H821        H  0.06865043  0.21785874  0.93247062     0.12900
O822        O  0.71837619  0.42273153  0.21892394    -0.81800
C823        C  0.56630268  0.26505785  0.29709403     0.97600
O824        O  0.57821111  0.30892049  0.28907000    -0.70900
O825        O  0.64155650  0.40040629  0.28404261    -0.74500
Al826      Al  0.61330316  0.34807513  0.24519340     1.49000
C827        C  0.67635349  0.41303947  0.30841313     0.92800
O828        O  0.73651687  0.33817195  0.29218840    -0.80700
O829        O  0.69700001  0.27321545  0.22002997    -0.74200
Al830      Al  0.72034582  0.37510731  0.25485102     1.90100
O831        O  0.66967226  0.26828991  0.29877614    -0.73300
O832        O  0.61435085  0.25979857  0.19505767    -0.73200
O833        O  0.58201739  0.24219809  0.27624641    -0.78800
O834        O  0.57469446  0.29929414  0.20581487    -0.77000
O835        O  0.65847839  0.32986010  0.24975014    -1.13200
O836        O  0.64329319  0.38916140  0.20027429    -0.72400
C837        C  0.68674335  0.41893763  0.19366990     0.98400
C838        C  0.71041159  0.29984427  0.31206796     0.94800
Al839      Al  0.64173441  0.26599031  0.24768182     1.55600
O840        O  0.70946808  0.40317408  0.30144982    -0.77000
C841        C  0.58803208  0.27678738  0.18213203     0.98900
C842        C  0.72520120  0.30820298  0.19814410     0.93800
O843        O  0.73713055  0.35158336  0.20833457    -0.82300
C844        C  0.48429195  0.03710077  0.50161533     0.80300
N845        N  0.52675409  0.03641891  0.50259501    -0.78000
C846        C  0.52787957  0.49340747  0.50659499     0.82700
N847        N  0.98530001  0.45077378  0.50918192    -0.78000
C848        C  0.94271615  0.45092147  0.50850084     0.82800
N849        N  0.94266908  0.49411964  0.50445041    -0.79700
N850        N  0.71088866  0.49618015  0.50111862    -0.03400
C851        C  0.72445729  0.48620509  0.46512413    -0.00800
C852        C  0.76573585  0.48284950  0.46946772    -0.23700
C853        C  0.77783396  0.98988625  0.50948453    -0.23900
C854        C  0.74536279  0.00050395  0.52819860    -0.00900
H855        H  0.78477011  0.47552951  0.44601414     0.12800
H856        H  0.80798356  0.98843447  0.52335908     0.12900
N857        N  0.47120931  0.21436856  0.48341169    -0.03400
C858        C  0.96113858  0.23831063  0.51287180    -0.00800
C859        C  0.96323006  0.28043823  0.49744176    -0.23700
C860        C  0.47475507  0.28272977  0.45748808    -0.23900
C861        C  0.47819104  0.24116543  0.44907242    -0.00900
H862        H  0.95607894  0.30624681  0.51358830     0.12800
H863        H  0.48093707  0.31231071  0.43706927     0.12900
N864        N  0.75571562  0.27935737  0.51170137    -0.03400
C865        C  0.72979897  0.25088137  0.54317272    -0.00800
C866        C  0.68422540  0.21722309  0.53047629    -0.23700
C867        C  0.68097795  0.22511850  0.49011432    -0.23900
C868        C  0.72515861  0.26325239  0.47914114    -0.00900
H869        H  0.65788026  0.18771064  0.54841294     0.12800
H870        H  0.65031508  0.20406983  0.47043489     0.12900
C871        C  0.94184126  0.08209800  0.47767331    -0.20300
C872        C  0.48226583  0.08375218  0.49703146    -0.06800
C873        C  0.51813149  0.12923273  0.51292007     0.14000
C874        C  0.51422822  0.17174588  0.50681270    -0.20300
C875        C  0.47394391  0.16979353  0.48770984    -0.06800
C876        C  0.93729916  0.12450272  0.47299042     0.14000
C877        C  0.89353853  0.12101730  0.45230410    -0.23700
H878        H  0.91365691  0.04747479  0.46586892     0.15300
H879        H  0.54281614  0.20698158  0.51708559     0.15300
C880        C  0.55910257  0.13307666  0.53842709    -0.23600
H881        H  0.86682846  0.08234549  0.44520114     0.05600
H882        H  0.90392433  0.14171612  0.42357638     0.08800
H883        H  0.87633943  0.13655271  0.47202110     0.08800
H884        H  0.58371670  0.12618789  0.51956955     0.08800
H885        H  0.54515078  0.10615211  0.56350683     0.08800
H886        H  0.57974265  0.17009572  0.55228375     0.05500
C887        C  0.61829683  0.53832271  0.50204176    -0.20300
C888        C  0.57545375  0.49360584  0.50820810    -0.06800
C889        C  0.57973747  0.95076214  0.51545769     0.14000
C890        C  0.62532740  0.95397038  0.51547104    -0.20300
C891        C  0.66719914  0.49810967  0.50799230    -0.06800
C892        C  0.66372100  0.54093136  0.50153318     0.14000
C893        C  0.70721808  0.58973281  0.49365373    -0.23700
H894        H  0.61662516  0.57170938  0.49664498     0.15300
H895        H  0.62847391  0.92119701  0.51975038     0.15300
C896        C  0.53705534  0.90087876  0.52216795    -0.23600
H897        H  0.71022096  0.61620789  0.51732467     0.05600
H898        H  0.70334194  0.60374782  0.46375475     0.08800
H899        H  0.74093442  0.58762388  0.49396052     0.08800
H900        H  0.51367373  0.88953256  0.49475577     0.08800
H901        H  0.51685199  0.90161286  0.54900883     0.08800
H902        H  0.54780734  0.87242699  0.52775817     0.05500
C903        C  0.81579799  0.35848505  0.53946484    -0.20300
C904        C  0.80486080  0.31896216  0.51340885    -0.06800
C905        C  0.84132598  0.32126349  0.48795581     0.14000
C906        C  0.88650855  0.36420566  0.48758766    -0.20300
C907        C  0.89632793  0.40469534  0.51233683    -0.06800
C908        C  0.86079048  0.40105147  0.53948092     0.14000
C909        C  0.87012788  0.44154511  0.56911768    -0.23700
H910        H  0.78803551  0.35705055  0.55862436     0.15300
H911        H  0.91397240  0.36633835  0.46735607     0.15300
C912        C  0.83410675  0.27905983  0.46145193    -0.23600
H913        H  0.83968024  0.43071911  0.59010447     0.05600
H914        H  0.87513370  0.47481625  0.55290385     0.08800
H915        H  0.90269726  0.45042873  0.58757318     0.08800
H916        H  0.83433977  0.28911203  0.42921052     0.08800
H917        H  0.80012357  0.24510216  0.46794555     0.08800
H918        H  0.86392354  0.27090997  0.46654767     0.05500
C919        C  0.49262720  0.24429739  0.33545592    -0.20300
C920        C  0.53530256  0.24206236  0.33264875    -0.06800
C921        C  0.55194521  0.22734972  0.36711002     0.14000
C922        C  0.52981757  0.22268512  0.40457426    -0.20300
C923        C  0.49067702  0.23096491  0.40826888    -0.06800
C924        C  0.46931337  0.23762067  0.37260479     0.14000
C925        C  0.42199854  0.23769859  0.37325832    -0.23700
H926        H  0.47882200  0.25382825  0.30881863     0.15300
H927        H  0.54608677  0.21712066  0.43154073     0.15300
C928        C  0.59606024  0.22178316  0.36602047    -0.23600
H929        H  0.40874980  0.23837110  0.34217857     0.05600
H930        H  0.92522496  0.27024717  0.38927086     0.08800
H931        H  0.39444280  0.20397229  0.38819644     0.08800
H932        H  0.60201575  0.20713683  0.39488469     0.08800
H933        H  0.62751151  0.25830088  0.36152706     0.08800
H934        H  0.59280035  0.19613906  0.34144323     0.05500
C935        C  0.71137836  0.48615694  0.35314913    -0.20300
C936        C  0.67722000  0.43684688  0.34711107    -0.06800
C937        C  0.65023205  0.40854347  0.38029120     0.14000
C938        C  0.66133221  0.42874967  0.41932677    -0.20300
C939        C  0.69906524  0.47633192  0.42584950    -0.06800
C940        C  0.72230545  0.50641924  0.39225680     0.14000
C941        C  0.76053958  0.05910648  0.39798011    -0.23700
H942        H  0.73163172  0.50788203  0.32759124     0.15300
H943        H  0.64415385  0.40553018  0.44513448     0.15300
C944        C  0.61260632  0.35570724  0.37516782    -0.23600
H945        H  0.77498919  0.07743440  0.36862136     0.05600
H946        H  0.79083050  0.06131273  0.41625896     0.08800
H947        H  0.74512814  0.07951974  0.41365872     0.08800
H948        H  0.62899296  0.33501615  0.36154823     0.08800
H949        H  0.58327630  0.35340475  0.35536770     0.08800
H950        H  0.59660099  0.33821074  0.40444768     0.05500
C951        C  0.73468129  0.33128996  0.38173688    -0.20300
C952        C  0.72567937  0.29434321  0.35325517    -0.06800
C953        C  0.72458234  0.25074773  0.36617034     0.14000
C954        C  0.72981201  0.24401159  0.40755031    -0.20300
C955        C  0.73546397  0.27950725  0.43646706    -0.06800
C956        C  0.73877800  0.32403389  0.42328966     0.14000
C957        C  0.74265857  0.36222301  0.45297227    -0.23700
H958        H  0.73495739  0.36454436  0.37174181     0.15300
H959        H  0.72653561  0.20946856  0.41775052     0.15300
C960        C  0.71710355  0.21103746  0.33648758    -0.23600
H961        H  0.77797051  0.37868235  0.46875549     0.05600
H962        H  0.71339621  0.34568402  0.47538901     0.08800
H963        H  0.73929773  0.39182587  0.43734157     0.08800
H964        H  0.74531266  0.22638118  0.31308106     0.08800
H965        H  0.68124088  0.19595849  0.32173710     0.08800
H966        H  0.71912106  0.18022091  0.35153529     0.05500
C967        C  0.53301658  0.27636272  0.07833041    -0.20300
C968        C  0.57361058  0.29254094  0.05371921    -0.06800
C969        C  0.61809258  0.30405456  0.07210649     0.14000
C970        C  0.62020938  0.29491176  0.11332795    -0.20300
C971        C  0.57966938  0.27765736  0.13791536    -0.06800
C972        C  0.53576394  0.26985551  0.12040557     0.14000
C973        C  0.49143819  0.25259044  0.14556349    -0.23700
H974        H  0.49846819  0.26586094  0.06434181     0.15300
H975        H  0.65444383  0.30323966  0.12677576     0.15300
C976        C  0.66390688  0.32500165  0.04851221    -0.23600
H977        H  0.45967759  0.24579360  0.12675900     0.05600
H978        H  0.49697617  0.28084283  0.16847727     0.08800
H979        H  0.48344854  0.21784212  0.16101104     0.08800
H980        H  0.65965058  0.33481063  0.01716255     0.08800
H981        H  0.67645538  0.29772533  0.04708524     0.08800
H982        H  0.69172099  0.35877783  0.06357322     0.05500
C983        C  0.73436127  0.25014543  0.15092800    -0.20300
C984        C  0.74001798  0.29727235  0.15851274    -0.06800
C985        C  0.75325461  0.33070415  0.12602544     0.14000
C986        C  0.75621953  0.31525982  0.08733335    -0.20300
C987        C  0.74989860  0.26843629  0.07920853    -0.06800
C988        C  0.74086506  0.23593648  0.11189935     0.14000
C989        C  0.74077438  0.18799890  0.10662605    -0.23700
H990        H  0.72515865  0.22441685  0.17567535     0.15300
H991        H  0.76489042  0.34100611  0.06269169     0.15300
C992        C  0.76243857  0.38239288  0.13070517    -0.23600
H993        H  0.73851769  0.17005029  0.13616593     0.05600
H994        H  0.77437688  0.19435131  0.09180302     0.08800
H995        H  0.70938487  0.16221486  0.08826159     0.08800
H996        H  0.79180711  0.40264857  0.15305890     0.08800
H997        H  0.72877489  0.38081253  0.14039756     0.08800
H998        H  0.77320286  0.40326101  0.10194960     0.05500
C999        C  0.75085082  0.47798248  0.14703755    -0.20300
C1000       C  0.70174424  0.44543451  0.15397683    -0.06800
C1001       C  0.66983091  0.43193373  0.12044165     0.14000
C1002       C  0.68842018  0.44367263  0.08137101    -0.20300
C1003       C  0.73757932  0.47534085  0.07366090    -0.06800
C1004       C  0.76884801  0.49430690  0.10772675     0.14000
C1005       C  0.82086059  0.03141780  0.10378024    -0.23700
H1006       H  0.77575102  0.48972335  0.17246527     0.15300
H1007       H  0.66321506  0.42929778  0.05619248     0.15300
C1008       C  0.61601363  0.40768308  0.12492325    -0.23600
H1009       H  0.83795835  0.04643813  0.13365693     0.05600
H1010       H  0.82473870  0.06266357  0.08506649     0.08800
H1011       H  0.84010073  0.01340185  0.09074318     0.08800
H1012       H  0.60692055  0.43015994  0.14523838     0.08800
H1013       H  0.60141662  0.37045172  0.13729697     0.08800
H1014       H  0.59736355  0.40408761  0.09549920     0.05500
C1015       C  0.64412742  0.09354914  0.00315939    -0.20300
C1016       C  0.60385846  0.09477507  0.01915396    -0.06800
C1017       C  0.61177121  0.14001643  0.03607668     0.14000
C1018       C  0.65628071  0.18304588  0.03058141    -0.20300
C1019       C  0.69577577  0.18177186  0.01338315    -0.06800
C1020       C  0.68998386  0.13542124  0.00233667     0.14000
C1021       C  0.73182089  0.12792091  0.99268034    -0.23700
H1022       H  0.64050842  0.05914935  0.99227799     0.15300
H1023       H  0.66094024  0.21754737  0.04192448     0.15300
C1024       C  0.57687262  0.14356229  0.06413738    -0.23600
H1025       H  0.73159440  0.09971089  0.01323857     0.05600
H1026       H  0.76688996  0.16126936  0.99774292     0.08800
H1027       H  0.72892747  0.11539488  0.96086886     0.08800
H1028       H  0.55004520  0.10715048  0.07554159     0.08800
H1029       H  0.55907593  0.16216876  0.04891077     0.08800
H1030       H  0.59634633  0.16536339  0.09134206     0.05500
C1031       C  0.98867887  0.32668625  0.00147487    -0.20300
C1032       C  0.03233951  0.33398853  0.98556183    -0.06800
C1033       C  0.56775646  0.38215318  0.97583687     0.14000
C1034       C  0.55925238  0.42170232  0.98214115    -0.20300
C1035       C  0.01637668  0.41552543  0.99915924    -0.06800
C1036       C  0.98039627  0.36686489  0.00872002     0.14000
C1037       C  0.93409464  0.35708110  0.02786433    -0.23700
H1038       H  0.96153376  0.28971606  0.00902548     0.15300
H1039       H  0.58723925  0.45820171  0.97430714     0.15300
C1040       C  0.61580207  0.39223286  0.95999343    -0.23600
H1041       H  0.91112307  0.31757030  0.03495791     0.05600
H1042       H  0.91371938  0.36797147  0.00675970     0.08800
H1043       H  0.94165367  0.37820724  0.05651271     0.08800
H1044       H  0.61117593  0.37036254  0.93230940     0.08800
H1045       H  0.63495656  0.38264182  0.98331934     0.08800
H1046       H  0.63878844  0.43149669  0.95229895     0.05500
C1047       C  0.87225688  0.04588434  0.01833643    -0.20300
C1048       C  0.82989417  0.00179402  0.01142298    -0.06800
C1049       C  0.83336138  0.45911161  0.00457448     0.14000
C1050       C  0.87885917  0.46129161  0.00609867    -0.20300
C1051       C  0.92208714  0.00581056  0.01338420    -0.06800
C1052       C  0.91777650  0.04883306  0.01958236     0.14000
C1053       C  0.96009232  0.09849800  0.02823846    -0.23700
H1054       H  0.86930200  0.07841849  0.02379027     0.15300
H1055       H  0.88042027  0.42789357  0.00078586     0.15300
C1056       C  0.78888475  0.41160308  0.99476585    -0.23600
H1057       H  0.94957724  0.12741688  0.03156315     0.05600
H1058       H  0.98602501  0.11001727  0.00308947     0.08800
H1059       H  0.97674944  0.09681188  0.05727152     0.08800
H1060       H  0.77194090  0.41553110  0.96656798     0.08800
H1061       H  0.76297392  0.40191456  0.01974346     0.08800
H1062       H  0.79698011  0.38115826  0.99039640     0.05500
C1063       C  0.97651152  0.21708805  0.58314668    -0.20300
C1064       C  0.94575073  0.22224105  0.55513464    -0.06800
C1065       C  0.90371194  0.22121459  0.56952294     0.14000
C1066       C  0.89610713  0.22033124  0.61107174    -0.20300
C1067       C  0.92620536  0.21462781  0.63924388    -0.06800
C1068       C  0.96613287  0.21112651  0.62486749     0.14000
C1069       C  0.99901466  0.20327612  0.65325416    -0.23700
H1070       H  0.00955149  0.21949902  0.57293285     0.15300
H1071       H  0.86508135  0.22238141  0.62138408     0.15300
C1072       C  0.86495748  0.21905066  0.54169835    -0.23600
H1073       H  0.02973128  0.20409987  0.63708886     0.05600
H1074       H  0.97903302  0.16684162  0.66789092     0.08800
H1075       H  0.01359131  0.23252436  0.67672444     0.08800
H1076       H  0.87131939  0.21460940  0.50953605     0.08800
H1077       H  0.86159486  0.25258901  0.54547752     0.08800
H1078       H  0.83041478  0.18643145  0.54928912     0.05500
C1079       C  0.78608142  0.99681529  0.89978175    -0.20300
C1080       C  0.80002987  0.03182408  0.93116715    -0.06800
C1081       C  0.82212114  0.08204003  0.92105804     0.14000
C1082       C  0.82602633  0.09570558  0.88044574    -0.20300
C1083       C  0.80906799  0.06091882  0.84931267    -0.06800
C1084       C  0.79069608  0.01098287  0.85876550     0.14000
C1085       C  0.77293128  0.97275920  0.82585875    -0.23700
H1086       H  0.76723044  0.95818684  0.90725201     0.15300
H1087       H  0.84007217  0.13365392  0.87294556     0.15300
C1088       C  0.83799660  0.12138507  0.95306045    -0.23600
H1089       H  0.75882066  0.93523117  0.83836430     0.05600
H1090       H  0.80286391  0.97996346  0.80523590     0.08800
H1091       H  0.74367559  0.97408951  0.80832200     0.08800
H1092       H  0.86645871  0.12107338  0.97206561     0.08800
H1093       H  0.80762219  0.61523202  0.97247985     0.08800
H1094       H  0.85296113  0.15852841  0.93971715     0.05500
C1095       C  0.95364973  0.19686828  0.86403604    -0.20300
C1096       C  0.96268288  0.23237167  0.83426768    -0.06800
C1097       C  0.99485697  0.28238664  0.84388869     0.14000
C1098       C  0.01856502  0.29468961  0.88209953    -0.20300
C1099       C  0.00948830  0.25843580  0.91124846    -0.06800
C1100       C  0.97499188  0.20915288  0.90231197     0.14000
C1101       C  0.95949318  0.16871037  0.93335562    -0.23700
H1102       H  0.92798808  0.15873361  0.85796403     0.15300
H1103       H  0.04482533  0.33239392  0.88874481     0.15300
C1104       C  0.00518510  0.32269535  0.81402725    -0.23600
H1105       H  0.92827645  0.13407987  0.92254004     0.05600
H1106       H  0.94926262  0.18014271  0.96165210     0.08800
H1107       H  0.98835798  0.15967907  0.93993978     0.08800
H1108       H  0.97206113  0.32496197  0.80776602     0.08800
H1109       H  0.01861643  0.31536359  0.78548969     0.08800
H1110       H  0.03280144  0.35904340  0.82580464     0.05500
C1111       C  0.71941106  0.99773091  0.60070110    -0.20300
C1112       C  0.75388708  0.01975934  0.57030381    -0.06800
C1113       C  0.80028095  0.05782991  0.58111675     0.14000
C1114       C  0.81237950  0.06956887  0.62164177    -0.20300
C1115       C  0.77838851  0.04890732  0.65242490    -0.06800
C1116       C  0.73073005  0.01297134  0.64165129     0.14000
C1117       C  0.69204342  0.99029133  0.67284634    -0.23700
H1118       H  0.68394601  0.46858517  0.59250719     0.15300
H1119       H  0.84843842  0.09843191  0.62881603     0.15300
C1120       C  0.83687628  0.08921907  0.55001686    -0.23600
H1121       H  0.65780882  0.96128401  0.65946834     0.05600
H1122       H  0.68485146  0.01872796  0.68599238     0.08800
H1123       H  0.70344645  0.97343161  0.69714879     0.08800
H1124       H  0.82000305  0.10299528  0.52775955     0.08800
H1125       H  0.85222645  0.06888814  0.53437128     0.08800
H1126       H  0.86785940  0.12147524  0.56406317     0.05500
C1127       C  0.75711091  0.25238433  0.65620168    -0.20300
C1128       C  0.76506510  0.21185956  0.65804414    -0.06800
C1129       C  0.76311159  0.18708464  0.62175047     0.14000
C1130       C  0.75752189  0.20551313  0.58476998    -0.20300
C1131       C  0.74854737  0.24499677  0.58270453    -0.06800
C1132       C  0.74557608  0.26706715  0.61917600     0.14000
C1133       C  0.72778025  0.30371377  0.62043911    -0.23700
H1134       H  0.75725023  0.27085256  0.68396592     0.15300
H1135       H  0.75656627  0.18661862  0.55706142     0.15300
C1136       C  0.76629361  0.14070959  0.62155865    -0.23600
H1137       H  0.69609502  0.28979359  0.64042531     0.05600
H1138       H  0.71639058  0.31012137  0.59027804     0.08800
H1139       H  0.75646434  0.33917578  0.63272198     0.08800
H1140       H  0.73522937  0.11158161  0.63784690     0.08800
H1141       H  0.80017516  0.14747921  0.63657757     0.08800
H1142       H  0.76537830  0.12697108  0.59045237     0.05500
C1143       C  0.81060701  0.22240047  0.92525506    -0.20300
C1144       C  0.76729410  0.22007505  0.93633701    -0.06800
C1145       C  0.73216736  0.21044373  0.90594995     0.14000
C1146       C  0.74203658  0.20393607  0.86537119    -0.20300
C1147       C  0.78793814  0.21209852  0.85417405    -0.06800
C1148       C  0.82298551  0.22335910  0.88496979     0.14000
C1149       C  0.87453481  0.23893181  0.87614749    -0.23700
H1150       H  0.83781664  0.23020655  0.94843078     0.15300
H1151       H  0.71484519  0.19517726  0.84208385     0.15300
C1152       C  0.68566426  0.20921524  0.91568811    -0.23600
H1153       H  0.89648237  0.24436792  0.90396810     0.05600
H1154       H  0.89104315  0.27419558  0.85945202     0.08800
H1155       H  0.87592969  0.21048660  0.85771691     0.08800
H1156       H  0.69293590  0.24416024  0.93040806     0.08800
H1157       H  0.66425819  0.17813262  0.93612624     0.08800
H1158       H  0.66366090  0.20421442  0.88801172     0.05500
O1159       O  0.76569083  0.57329036  0.71846730    -0.81800
C1160       C  0.93245631  0.71442394  0.79659497     0.97600
O1161       O  0.91238166  0.66924089  0.78870448    -0.70900
O1162       O  0.83851261  0.58268000  0.78253105    -0.74500
Al1163     Al  0.87375207  0.63435408  0.74439237     1.49000
C1164       C  0.80821601  0.57934545  0.80831154     0.92800
O1165       O  0.76651129  0.67102615  0.79003864    -0.80700
O1166       O  0.81201451  0.73061421  0.71845571    -0.74200
Al1167     Al  0.77355098  0.62642485  0.75365607     1.90100
O1168       O  0.84028516  0.73064624  0.79810922    -0.73300
O1169       O  0.88933513  0.73045325  0.69481071    -0.73200
O1170       O  0.92317304  0.74228400  0.77497899    -0.78800
O1171       O  0.91713951  0.67953719  0.70518301    -0.77000
O1172       O  0.83712864  0.66294862  0.74833204    -1.13200
O1173       O  0.83910568  0.59691006  0.69979665    -0.72400
C1174       C  0.79463811  0.57262004  0.69305189     0.98400
C1175       C  0.79841116  0.70504091  0.81155590     0.94800
Al1176     Al  0.86411631  0.72830321  0.74669857     1.55600
O1177       O  0.78064644  0.59684348  0.80132890    -0.77000
C1178       C  0.91146410  0.70888554  0.68234295     0.98900
C1179       C  0.77923853  0.69790500  0.69678833     0.93800
O1180       O  0.76129659  0.65332807  0.70638395    -0.82300
C1181       C  0.55573227  0.54809889  0.01768312     0.80300
N1182       N  0.55492809  0.50455535  0.01247003    -0.78000
C1183       C  0.01325789  0.96152347  0.00777533     0.82700
N1184       N  0.97081326  0.96242454  0.00841694    -0.78000
C1185       C  0.96993496  0.50562191  0.01366199     0.82800
N1186       N  0.51291149  0.54822468  0.01782811    -0.79700
N1187       N  0.78544607  0.50322176  0.00504511    -0.03400
C1188       C  0.77304151  0.51634415  0.96930677    -0.00800
C1189       C  0.73024502  0.51646480  0.97203390    -0.23700
C1190       C  0.71517173  0.00370268  0.01053244    -0.23900
C1191       C  0.74848057  0.99466044  0.03087032    -0.00900
H1192       H  0.71240038  0.52602335  0.94850076     0.12800
H1193       H  0.68268161  0.00138577  0.02250632     0.12900
N1194       N  0.74142810  0.72687547  0.00940234    -0.03400
C1195       C  0.77010798  0.74398678  0.97600083    -0.00800
C1196       C  0.80985099  0.78905724  0.98400166    -0.23700
C1197       C  0.80721692  0.80015507  0.02297025    -0.23900
C1198       C  0.76506065  0.76268512  0.03810333    -0.03700
H1199       H  0.83862133  0.81122648  0.96352647     0.12800
H1200       H  0.83289585  0.83324266  0.03861288     0.12900
N1201       N  0.04343579  0.79431456  0.98169260    -0.03400
C1202       C  0.56635408  0.78076193  0.00983624    -0.00800
C1203       C  0.57970296  0.74875196  0.99316792    -0.23700
C1204       C  0.06466901  0.74180693  0.95389353    -0.23900
C1205       C  0.04067367  0.76812481  0.94771826    -0.00900
H1206       H  0.59812590  0.73181758  0.00815162     0.12800
H1207       H  0.06862806  0.71785284  0.93248596     0.12900
O1208       O  0.71837923  0.92273781  0.21892718    -0.81800
C1209       C  0.56630125  0.76506598  0.29708892     0.97600
O1210       O  0.57821533  0.80893164  0.28907156    -0.70900
O1211       O  0.64156722  0.90041754  0.28404375    -0.74500
Al1212     Al  0.61330721  0.84808552  0.24519522     1.49000
C1213       C  0.67636125  0.91304287  0.30841620     0.92800
O1214       O  0.73651520  0.83816383  0.29218179    -0.80700
O1215       O  0.69699393  0.77321694  0.22002201    -0.74200
Al1216     Al  0.72034716  0.87510769  0.25484997     1.90100
O1217       O  0.66966724  0.76828324  0.29876700    -0.73300
O1218       O  0.61434994  0.75981468  0.19505186    -0.73200
O1219       O  0.58201377  0.74220601  0.27623880    -0.78800
O1220       O  0.57469191  0.79930546  0.20582008    -0.77000
O1221       O  0.65847897  0.82986475  0.24974918    -1.13200
O1222       O  0.64329749  0.88916852  0.20027388    -0.72400
C1223       C  0.68674840  0.91894349  0.19367039     0.98400
C1224       C  0.71040736  0.79983487  0.31205937     0.94800
Al1225     Al  0.64173038  0.76599432  0.24767471     1.55600
O1226       O  0.70947228  0.90317186  0.30145270    -0.77000
C1227       C  0.58803339  0.77680809  0.18213103     0.98900
C1228       C  0.72520008  0.80820554  0.19813961     0.93800
O1229       O  0.73712967  0.85158597  0.20833060    -0.82300
C1230       C  0.48429883  0.53712612  0.50164708     0.80300
N1231       N  0.52676155  0.53644530  0.50262005    -0.78000
C1232       C  0.52786925  0.99338011  0.50657847     0.82700
N1233       N  0.98528883  0.95074835  0.50916973    -0.78000
C1234       C  0.94270672  0.95089825  0.50848002     0.82800
N1235       N  0.94266192  0.99409586  0.50441925    -0.79700
N1236       N  0.71087038  0.99614083  0.50113219    -0.03400
C1237       C  0.72444295  0.98616258  0.46514159    -0.00800
C1238       C  0.76571824  0.98280245  0.46949234    -0.23700
C1239       C  0.77785839  0.48993320  0.50945876    -0.23900
C1240       C  0.74538808  0.50054662  0.52818042    -0.00900
H1241       H  0.78475563  0.97547972  0.44604256     0.12800
H1242       H  0.80801054  0.48848046  0.52332763     0.12900
N1243       N  0.47123635  0.71440154  0.48340880    -0.03400
C1244       C  0.96116614  0.73834623  0.51286662    -0.00800
C1245       C  0.96323864  0.78046163  0.49742763    -0.23700
C1246       C  0.47475772  0.78274650  0.45747272    -0.23900
C1247       C  0.47820268  0.74118602  0.44906428    -0.00900
H1248       H  0.95607333  0.80626363  0.51356844     0.12800
H1249       H  0.48092455  0.81231711  0.43704756     0.12900
N1250       N  0.75569110  0.77936553  0.51169702    -0.03400
C1251       C  0.72978284  0.75089299  0.54317193    -0.00800
C1252       C  0.68420829  0.71723153  0.53048201    -0.23700
C1253       C  0.68094941  0.72512595  0.49012130    -0.23900
C1254       C  0.72512697  0.76325911  0.47914207    -0.00900
H1255       H  0.65787360  0.68771568  0.54842188     0.12800
H1256       H  0.65028312  0.70407406  0.47044557     0.12900
C1257       C  0.94184746  0.58212374  0.47770551    -0.20300
C1258       C  0.48227410  0.58377826  0.49705946    -0.06800
C1259       C  0.51814922  0.62926275  0.51293387     0.14000
C1260       C  0.51425449  0.67177910  0.50681448    -0.20300
C1261       C  0.47397020  0.66982680  0.48771192    -0.06800
C1262       C  0.93731474  0.62453220  0.47300932     0.14000
C1263       C  0.89355238  0.62104690  0.45232603    -0.23700
H1264       H  0.91365539  0.54749811  0.46591273     0.15300
H1265       H  0.54284758  0.70701639  0.51707950     0.15300
C1266       C  0.55911960  0.63310691  0.53844109    -0.23600
H1267       H  0.86682487  0.58237228  0.44525059     0.05600
H1268       H  0.90393237  0.64171573  0.42358388     0.08800
H1269       H  0.87637568  0.63661674  0.47203165     0.08800
H1270       H  0.58372909  0.62620875  0.51958542     0.08800
H1271       H  0.54516725  0.60618873  0.56352528     0.08800
H1272       H  0.57976219  0.67012852  0.55229235     0.05500
C1273       C  0.61829014  0.03829694  0.50207162    -0.20300
C1274       C  0.57544059  0.99357459  0.50820041    -0.06800
C1275       C  0.57975968  0.45080378  0.51549522     0.14000
C1276       C  0.62535244  0.45401606  0.51550041    -0.20300
C1277       C  0.66718049  0.99806985  0.50799958    -0.06800
C1278       C  0.66371287  0.04090201  0.50157283     0.14000
C1279       C  0.70722015  0.08971106  0.49374177    -0.23700
H1280       H  0.61662580  0.07169170  0.49669901     0.15300
H1281       H  0.62850446  0.42124883  0.51980196     0.15300
C1282       C  0.53708261  0.40092792  0.52225076    -0.23600
H1283       H  0.71020686  0.11615185  0.51743804     0.05600
H1284       H  0.70337122  0.10377047  0.46385521     0.08800
H1285       H  0.74093317  0.08759619  0.49404959     0.08800
H1286       H  0.51368450  0.38954273  0.49484843     0.08800
H1287       H  0.51689424  0.40169900  0.54908921     0.08800
H1288       H  0.54783891  0.37248434  0.52786885     0.05500
C1289       C  0.81577879  0.85850087  0.53943917    -0.20300
C1290       C  0.80483738  0.81896611  0.51339667    -0.06800
C1291       C  0.84130157  0.82124472  0.48795534     0.14000
C1292       C  0.88649089  0.86417832  0.48758424    -0.20300
C1293       C  0.89631706  0.90467786  0.51232351    -0.06800
C1294       C  0.86077987  0.90105477  0.53945810     0.14000
C1295       C  0.87012541  0.94155744  0.56908816    -0.23700
H1296       H  0.78801546  0.85708365  0.55858697     0.15300
H1297       H  0.91395284  0.86629698  0.46735835     0.15300
C1298       C  0.83407116  0.77902814  0.46146313    -0.23600
H1299       H  0.83967575  0.93074448  0.59007023     0.05600
H1300       H  0.87514478  0.97483020  0.55286904     0.08800
H1301       H  0.90268894  0.95043324  0.58754932     0.08800
H1302       H  0.83430260  0.78906949  0.42921912     0.08800
H1303       H  0.80008469  0.74507729  0.46796458     0.08800
H1304       H  0.86388379  0.77087294  0.46656145     0.05500
C1305       C  0.49261845  0.74428688  0.33544695    -0.20300
C1306       C  0.53530229  0.74206780  0.33264213    -0.06800
C1307       C  0.55195776  0.72737460  0.36710627     0.14000
C1308       C  0.52983399  0.72271499  0.40457054    -0.20300
C1309       C  0.49068273  0.73097688  0.40826239    -0.06800
C1310       C  0.46930698  0.73761247  0.37259691     0.14000
C1311       C  0.42198245  0.73767042  0.37325061    -0.23700
H1312       H  0.47880473  0.75380368  0.30880700     0.15300
H1313       H  0.54611442  0.71717057  0.43153901     0.15300
C1314       C  0.59608569  0.72183111  0.36601975    -0.23600
H1315       H  0.40873524  0.73834763  0.34217113     0.05600
H1316       H  0.92519292  0.77020777  0.38927089     0.08800
H1317       H  0.39443269  0.70393442  0.38818125     0.08800
H1318       H  0.60204835  0.70719226  0.39488521     0.08800
H1319       H  0.62752681  0.75835573  0.36152577     0.08800
H1320       H  0.59283840  0.69619050  0.34144420     0.05500
C1321       C  0.71139188  0.98614962  0.35316659    -0.20300
C1322       C  0.67722573  0.93684431  0.34711710    -0.06800
C1323       C  0.65021987  0.90853746  0.38028904     0.14000
C1324       C  0.66132285  0.92872594  0.41932989    -0.20300
C1325       C  0.69906171  0.97630141  0.42586342    -0.06800
C1326       C  0.72231018  0.00639936  0.39227869     0.14000
C1327       C  0.76053855  0.55912803  0.39794354    -0.23700
H1328       H  0.73165367  0.00788112  0.32761441     0.15300
H1329       H  0.64413481  0.90549895  0.44513147     0.15300
C1330       C  0.61256314  0.85571675  0.37515034    -0.23600
H1331       H  0.77498157  0.57744397  0.36857956     0.05600
H1332       H  0.79083444  0.56134097  0.41622012     0.08800
H1333       H  0.74513295  0.57954979  0.41361625     0.08800
H1334       H  0.62892744  0.83500716  0.36152749     0.08800
H1335       H  0.58325023  0.85345049  0.35534723     0.08800
H1336       H  0.59654017  0.83821630  0.40442472     0.05500
C1337       C  0.73462671  0.83127423  0.38173078    -0.20300
C1338       C  0.72566591  0.79433834  0.35325069    -0.06800
C1339       C  0.72458558  0.75075280  0.36617213     0.14000
C1340       C  0.72980257  0.74401971  0.40755524    -0.20300
C1341       C  0.73542669  0.77950926  0.43646769    -0.06800
C1342       C  0.73870801  0.82401968  0.42328553     0.14000
C1343       C  0.74253295  0.86218863  0.45296438    -0.23700
H1344       H  0.73487926  0.86451545  0.37173159     0.15300
H1345       H  0.72654028  0.70948438  0.41776004     0.15300
C1346       C  0.71713610  0.71104938  0.33649312    -0.23600
H1347       H  0.77782924  0.87866165  0.46877488     0.05600
H1348       H  0.71324835  0.84562513  0.47535948     0.08800
H1349       H  0.73916417  0.89178312  0.43732645     0.08800
H1350       H  0.74535680  0.72640319  0.31309687     0.08800
H1351       H  0.68127981  0.69596094  0.32172904     0.08800
H1352       H  0.71915796  0.68023833  0.35154699     0.05500
C1353       C  0.53302927  0.77640993  0.07833188    -0.20300
C1354       C  0.57362043  0.79257416  0.05372057    -0.06800
C1355       C  0.61810063  0.80408062  0.07210636     0.14000
C1356       C  0.62021541  0.79493626  0.11332767    -0.20300
C1357       C  0.57967594  0.77769129  0.13791527    -0.06800
C1358       C  0.53577508  0.76990386  0.12040632     0.14000
C1359       C  0.49145031  0.75265144  0.14556299    -0.23700
H1360       H  0.49848186  0.76591307  0.06434381     0.15300
H1361       H  0.65444663  0.80325144  0.12677445     0.15300
C1362       C  0.66391253  0.82501859  0.04850931    -0.23600
H1363       H  0.45969318  0.74586436  0.12675761     0.05600
H1364       H  0.49699573  0.78090687  0.16847617     0.08800
H1365       H  0.48344998  0.71790014  0.16101035     0.08800
H1366       H  0.65965479  0.83482674  0.01715920     0.08800
H1367       H  0.67645575  0.79773771  0.04708359     0.08800
H1368       H  0.69173014  0.85879484  0.06356738     0.05500
C1369       C  0.73438386  0.75015393  0.15093503    -0.20300
C1370       C  0.74002345  0.79727528  0.15851158    -0.06800
C1371       C  0.75324962  0.83069942  0.12601964     0.14000
C1372       C  0.75622201  0.81525224  0.08732991    -0.20300
C1373       C  0.74991581  0.76843257  0.07921368    -0.06800
C1374       C  0.74089427  0.73594312  0.11190952     0.14000
C1375       C  0.74082349  0.68801505  0.10664299    -0.23700
H1376       H  0.72519048  0.72443195  0.17568632     0.15300
H1377       H  0.76488848  0.84099247  0.06268453     0.15300
C1378       C  0.76241701  0.88238251  0.13069372    -0.23600
H1379       H  0.73856158  0.67006742  0.13618423     0.05600
H1380       H  0.77443591  0.69438089  0.09183043     0.08800
H1381       H  0.70944521  0.66222564  0.08826995     0.08800
H1382       H  0.79178892  0.90265006  0.15304200     0.08800
H1383       H  0.72875057  0.88079240  0.14039117     0.08800
H1384       H  0.77316854  0.90324383  0.10193468     0.05500
C1385       C  0.75086145  0.97796807  0.14703093    -0.20300
C1386       C  0.70175210  0.94543825  0.15397590    -0.06800
C1387       C  0.66983453  0.93195174  0.12044477     0.14000
C1388       C  0.68841747  0.94368721  0.08137202    -0.20300
C1389       C  0.73757869  0.97533753  0.07365580    -0.06800
C1390       C  0.76885664  0.99428543  0.10771826     0.14000
C1391       C  0.82084283  0.53147054  0.10379299    -0.23700
H1392       H  0.77576573  0.98969623  0.17245546     0.15300
H1393       H  0.66320629  0.92932003  0.05619705     0.15300
C1394       C  0.61601963  0.90771878  0.12493383    -0.23600
H1395       H  0.83792673  0.54650967  0.13367018     0.05600
H1396       H  0.82469967  0.56269987  0.08506761     0.08800
H1397       H  0.84011054  0.51347659  0.09076917     0.08800
H1398       H  0.60694171  0.93019500  0.14526349     0.08800
H1399       H  0.60141295  0.87048063  0.13729511     0.08800
H1400       H  0.59736730  0.90414500  0.09551473     0.05500
C1401       C  0.64414173  0.59353744  0.00317925    -0.20300
C1402       C  0.60386895  0.59476901  0.01915977    -0.06800
C1403       C  0.61178145  0.64001635  0.03607093     0.14000
C1404       C  0.65629553  0.68304286  0.03058049    -0.20300
C1405       C  0.69579276  0.68176179  0.01339547    -0.06800
C1406       C  0.69000029  0.63540838  0.00235987     0.14000
C1407       C  0.73183956  0.62790724  0.99271648    -0.23700
H1408       H  0.64052370  0.55913518  0.99230628     0.15300
H1409       H  0.66095495  0.71754852  0.04191294     0.15300
C1410       C  0.57687536  0.64357194  0.06411542    -0.23600
H1411       H  0.73160905  0.59970024  0.01328074     0.05600
H1412       H  0.76690749  0.66125721  0.99778023     0.08800
H1413       H  0.72895322  0.61537862  0.96090668     0.08800
H1414       H  0.55006275  0.60716549  0.07554094     0.08800
H1415       H  0.55906315  0.66214769  0.04886540     0.08800
H1416       H  0.59634339  0.66540602  0.09130870     0.05500
C1417       C  0.98868787  0.82670521  0.00148844    -0.20300
C1418       C  0.03234239  0.83400619  0.98556277    -0.06800
C1419       C  0.56775367  0.88216814  0.97582375     0.14000
C1420       C  0.55924448  0.92171499  0.98211830    -0.20300
C1421       C  0.01637608  0.91553861  0.99915072    -0.06800
C1422       C  0.98040717  0.86688336  0.00873546     0.14000
C1423       C  0.93412528  0.85710773  0.02791410    -0.23700
H1424       H  0.96154854  0.78973727  0.00905135     0.15300
H1425       H  0.58722377  0.95821314  0.97427070     0.15300
C1426       C  0.61579975  0.89224847  0.95998020    -0.23600
H1427       H  0.91116515  0.81760167  0.03502952     0.05600
H1428       H  0.91372522  0.86798114  0.00682248     0.08800
H1429       H  0.94171399  0.87825331  0.05655488     0.08800
H1430       H  0.61117518  0.87036428  0.93230556     0.08800
H1431       H  0.63496232  0.88267557  0.98331230     0.08800
H1432       H  0.63877843  0.93150908  0.95227089     0.05500
C1433       C  0.87226184  0.54588680  0.01835645    -0.20300
C1434       C  0.82989770  0.50180037  0.01143417    -0.06800
C1435       C  0.83335850  0.95910476  0.00457081     0.14000
C1436       C  0.87885674  0.96128794  0.00609724    -0.20300
C1437       C  0.92209120  0.50581001  0.01339404    -0.06800
C1438       C  0.91778074  0.54883148  0.01960280     0.14000
C1439       C  0.96009680  0.59849171  0.02826966    -0.23700
H1440       H  0.86930940  0.57842193  0.02381458     0.15300
H1441       H  0.88041928  0.92788900  0.00079347     0.15300
C1442       C  0.78888229  0.91159215  0.99477152    -0.23600
H1443       H  0.94958429  0.62741213  0.03159753     0.05600
H1444       H  0.98603318  0.61001589  0.00312331     0.08800
H1445       H  0.97674694  0.59679524  0.05730371     0.08800
H1446       H  0.77193429  0.91550976  0.96657221     0.08800
H1447       H  0.76297458  0.90191163  0.01975055     0.08800
H1448       H  0.79697863  0.88114677  0.99041021     0.05500
C1449       C  0.97654755  0.71712890  0.58314494    -0.20300
C1450       C  0.94578658  0.72228402  0.55513345    -0.06800
C1451       C  0.90375112  0.72126201  0.56952469     0.14000
C1452       C  0.89615277  0.72038851  0.61107373    -0.20300
C1453       C  0.92624878  0.71468109  0.63924520    -0.06800
C1454       C  0.96617045  0.71116919  0.62486689     0.14000
C1455       C  0.99904542  0.70330656  0.65325261    -0.23700
H1456       H  0.00958494  0.71953402  0.57292992     0.15300
H1457       H  0.86512861  0.72244186  0.62138669     0.15300
C1458       C  0.86499199  0.71909127  0.54170275    -0.23600
H1459       H  0.02975978  0.70412546  0.63708712     0.05600
H1460       H  0.97905678  0.66687078  0.66788618     0.08800
H1461       H  0.01362556  0.73255127  0.67672581     0.08800
H1462       H  0.87133978  0.71462203  0.50954277     0.08800
H1463       H  0.86164303  0.75263928  0.54546674     0.08800
H1464       H  0.83044652  0.68648472  0.54930917     0.05500
C1465       C  0.78607204  0.49683326  0.89977633    -0.20300
C1466       C  0.80002843  0.53183454  0.93116939    -0.06800
C1467       C  0.82212386  0.58205278  0.92106665     0.14000
C1468       C  0.82603312  0.59572917  0.88045548    -0.20300
C1469       C  0.80907409  0.56095095  0.84931510    -0.06800
C1470       C  0.79069080  0.51101172  0.85876149     0.14000
C1471       C  0.77292048  0.47279656  0.82584791    -0.23700
H1472       H  0.76721480  0.45820320  0.90723994     0.15300
H1473       H  0.84008514  0.63367908  0.87296265     0.15300
C1474       C  0.83800088  0.62139011  0.95307588    -0.23600
H1475       H  0.75880487  0.43526466  0.83834623     0.05600
H1476       H  0.80285144  0.48000179  0.80522272     0.08800
H1477       H  0.74366748  0.47413714  0.80831519     0.08800
H1478       H  0.86645972  0.62106978  0.97207983     0.08800
H1479       H  0.80761705  0.11523042  0.97246275     0.08800
H1480       H  0.85296768  0.65853686  0.93973908     0.05500
C1481       C  0.95365202  0.69689729  0.86403946    -0.20300
C1482       C  0.96269933  0.73240576  0.83427206    -0.06800
C1483       C  0.99487954  0.78241765  0.84389635     0.14000
C1484       C  0.01857698  0.79471258  0.88211077    -0.20300
C1485       C  0.00948739  0.75845395  0.91125768    -0.06800
C1486       C  0.97498581  0.70917491  0.90231823     0.14000
C1487       C  0.95947182  0.66873157  0.93336263    -0.23700
H1488       H  0.92798430  0.65876501  0.85796466     0.15300
H1489       H  0.04484042  0.83241419  0.88875948     0.15300
C1490       C  0.00522824  0.82273091  0.81403427    -0.23600
H1491       H  0.92825760  0.63410326  0.92254105     0.05600
H1492       H  0.94923370  0.68016687  0.96165366     0.08800
H1493       H  0.98833041  0.65969497  0.93995938     0.08800
H1494       H  0.97211302  0.82501140  0.80776587     0.08800
H1495       H  0.01866146  0.81539352  0.78550030     0.08800
H1496       H  0.03285073  0.85907461  0.82581475     0.05500
C1497       C  0.71944349  0.49777026  0.60068788    -0.20300
C1498       C  0.75391805  0.51979796  0.57028916    -0.06800
C1499       C  0.80031395  0.55786598  0.58110358     0.14000
C1500       C  0.81241228  0.56960769  0.62162936    -0.20300
C1501       C  0.77842167  0.54894795  0.65241290    -0.06800
C1502       C  0.73076403  0.51300970  0.64163872     0.14000
C1503       C  0.69207905  0.49032763  0.67283470    -0.23700
H1504       H  0.68391467  0.96854427  0.59251970     0.15300
H1505       H  0.84847129  0.59847064  0.62880436     0.15300
C1506       C  0.83691172  0.58925119  0.55000431    -0.23600
H1507       H  0.65784811  0.46131061  0.65945960     0.05600
H1508       H  0.68487837  0.51876128  0.68597454     0.08800
H1509       H  0.70348935  0.47347964  0.69714159     0.08800
H1510       H  0.82003842  0.60302036  0.52774042     0.08800
H1511       H  0.85226676  0.56891880  0.53436820     0.08800
H1512       H  0.86789120  0.62151247  0.56404927     0.05500
C1513       C  0.75714338  0.75242727  0.65619296    -0.20300
C1514       C  0.76509686  0.71190234  0.65803509    -0.06800
C1515       C  0.76313178  0.68711881  0.62174320     0.14000
C1516       C  0.75751890  0.70553208  0.58476346    -0.20300
C1517       C  0.74854232  0.74501451  0.58269945    -0.06800
C1518       C  0.74559315  0.76710016  0.61917002     0.14000
C1519       C  0.72780933  0.80375642  0.62043668    -0.23700
H1520       H  0.75729562  0.77090357  0.68395610     0.15300
H1521       H  0.75655017  0.68662842  0.55705640     0.15300
C1522       C  0.76632621  0.64075044  0.62155219    -0.23600
H1523       H  0.69613996  0.78985397  0.64043980     0.05600
H1524       H  0.71640001  0.81015144  0.59027974     0.08800
H1525       H  0.75650780  0.83922159  0.63270173     0.08800
H1526       H  0.73526769  0.61161971  0.63784394     0.08800
H1527       H  0.80021286  0.64752930  0.63656707     0.08800
H1528       H  0.76540935  0.62701001  0.59044626     0.05500
C1529       C  0.81062122  0.72238915  0.92525622    -0.20300
C1530       C  0.76730770  0.72005684  0.93634599    -0.06800
C1531       C  0.73217976  0.71043382  0.90596178     0.14000
C1532       C  0.74205151  0.70395024  0.86537722    -0.20300
C1533       C  0.78795352  0.71211883  0.85417429    -0.06800
C1534       C  0.82299932  0.72336447  0.88496856     0.14000
C1535       C  0.87454692  0.73893748  0.87614191    -0.23700
H1536       H  0.83783269  0.73019104  0.94842930     0.15300
H1537       H  0.71486063  0.69520192  0.84209169     0.15300
C1538       C  0.68567046  0.70918597  0.91571077    -0.23600
H1539       H  0.89649420  0.74435835  0.90395986     0.05600
H1540       H  0.89105761  0.77420873  0.85945696     0.08800
H1541       H  0.87593615  0.71049865  0.85769839     0.08800
H1542       H  0.69293241  0.74411682  0.93045178     0.08800
H1543       H  0.66426764  0.67808508  0.93613388     0.08800
H1544       H  0.66366834  0.70420144  0.88803675     0.05500
loop_ 
_geom_bond_atom_site_label_1 
_geom_bond_atom_site_label_2 
_geom_bond_distance 
_geom_bond_site_symmetry_2 
_ccdc_geom_bond_type 
O1           C16   1.264       .  A
O1           Al9   1.940       .  S
C2           O12   1.264       .  A
C2            O3   1.258       .  A
C2          C324   1.498       .  S
O3           Al5   1.873       .  S
O4            C6   1.262       .  A
O4           Al5   1.927       .  S
Al5          O13   1.928       .  S
Al5          O15   1.863       .  S
Al5          O14   1.788       .  S
C6           O19   1.260       .  A
C6          C311   1.477       .  S
O7           C17   1.265       .  A
O7           Al9   1.937       .  S
O8           C21   1.262       .  A
O8          Al18   1.928       .  S
Al9          O22   1.898       .  S
Al9          O19   1.892       .  S
Al9          O14   1.788       .  S
O10          C17   1.262       .  A
O10         Al18   1.887       .  S
O11          C20   1.262       .  A
O11         Al18   1.891       .  S
O12         Al18   1.942       .  S
O13          C20   1.264       .  A
O14         Al18   1.787       .  S
O15          C16   1.257       .  A
C16         C343   1.495       .  S
C17         C375   1.494       .  S
C20         C295   1.490       .  S
C21          O22   1.261       .  A
C21         C356   1.488       .  S
C23         C244   1.516       .  S
C23          N24   1.358       .  A
C23          N28   1.368       .  A
N24        C1183   1.360   1_545  A
C25         C263   1.514   1_554  S
C25          N26   1.368       .  A
C25        N1182   1.360       .  A
N26         C413   1.373       .  A
C27         C279   1.529       .  S
C27         N412   1.373   1_545  A
C27         N800   1.373       .  A
N28         C799   1.373   1_455  A
N29          C30   1.366   1_554  A
N29         C419   1.381   1_545  A
N29         C276   1.453       .  S
C30         C308   1.478       .  S
C30          C31   1.371       .  A
C31         C418   1.356   1_556  A
C31          H34   1.083       .  S
C32          C33   1.391       .  A
C32         C417   1.356   1_554  A
C32          H35   1.083       .  S
C33         C231   1.513       .  S
C33         N415   1.381       .  A
N36          C40   1.373       .  A
N36          C37   1.374   1_554  A
N36         C247   1.457       .  S
C37         C372   1.491       .  S
C37          C38   1.382       .  A
C38          C39   1.350   1_556  A
C38          H41   1.083       .  S
C39          C40   1.381       .  A
C39          H42   1.083       .  S
C40         C215   1.489       .  S
N43          C47   1.367       .  A
N43         C816   1.365   1_556  A
N43         C260   1.451       .  S
C44         C196   1.486       .  S
C44         N815   1.365   1_554  A
C44          C45   1.380   1_554  A
C45         C818   1.360       .  A
C45          H48   1.079   1_556  S
C46          C47   1.382       .  A
C46         C817   1.360       .  A
C46          H49   1.083       .  S
C47         C327   1.488       .  S
O50          C65   1.262       .  A
O50         Al58   1.925       .  S
C51          O61   1.263       .  A
C51          O52   1.258       .  A
C51         C148   1.486       .  S
O52         Al54   1.884       .  S
O53          C55   1.261       .  A
O53         Al54   1.917       .  S
Al54         O62   1.916       .  S
Al54         O64   1.896       .  S
Al54         O63   1.793       .  S
C55          O68   1.259       .  A
C55         C164   1.475       .  S
O56          C66   1.263       .  A
O56         Al58   1.918       .  S
O57          C70   1.257       .  A
O57         Al67   1.909       .  S
Al58         O71   1.897       .  S
Al58         O68   1.892       .  S
Al58         O63   1.787       .  S
O59          C66   1.262       .  A
O59         Al67   1.886       .  S
O60          C69   1.262       .  A
O60         Al67   1.905       .  S
O61         Al67   1.932       .  S
O62          C69   1.261       .  A
O63         Al67   1.795       .  S
O64          C65   1.258       .  A
C65         C228   1.504       .  S
C66         C180   1.479       .  S
C69         C199   1.486       .  S
C70          O71   1.260       .  A
C70         C212   1.494       .  S
C72         C100   1.495       .  S
C72          N73   1.365   1_655  A
C72        N1235   1.356   1_545  A
N73         C460   1.367   1_545  A
C74         C116   1.514       .  S
C74         N459   1.367       .  A
C74         N847   1.365   1_455  A
N75          C76   1.360       .  A
N75         C846   1.365       .  A
C76         C135   1.486       .  S
C76          N77   1.355       .  A
N77        C1230   1.356       .  A
N78          C79   1.359       .  A
N78         C468   1.364       .  A
N78         C119   1.444       .  S
C79         C167   1.474       .  S
C79          C80   1.376       .  A
C80         C467   1.362       .  A
C80          H83   1.081       .  S
C81          C82   1.384   1_565  A
C81         C466   1.362       .  A
C81          H84   1.081       .  S
C82         C340   1.487       .  S
C82         N464   1.364   1_545  A
N85          C89   1.363       .  A
N85         C858   1.362       .  A
N85         C103   1.442       .  S
C86         C292   1.490       .  S
C86         N857   1.362       .  A
C86          C87   1.380       .  A
C87         C860   1.368       .  A
C87          H90   1.081       .  S
C88          C89   1.383       .  A
C88         C859   1.368       .  A
C88          H91   1.082       .  S
C89         C151   1.490       .  S
N92          C96   1.365       .  A
N92          C93   1.363       .  A
N92         C132   1.448       .  S
C93         C359   1.479       .  S
C93          C94   1.375       .  A
C94          C95   1.369       .  A
C94          H97   1.078       .  S
C95          C96   1.382       .  A
C95          H98   1.083       .  S
C96         C183   1.484       .  S
C99         C104   1.407       .  A
C99         C872   1.411       .  A
C99         H106   1.084       .  S
C100        C101   1.416   1_655  A
C100        C871   1.411       .  A
C101        C102   1.405       .  A
C101        C108   1.502       .  S
C102        C103   1.399   1_455  A
C102        H107   1.083       .  S
C103        C876   1.407       .  A
C104        C875   1.407       .  A
C104        C105   1.502       .  S
C105        H109   1.110       .  S
C105        H110   1.107       .  S
C105        H111   1.109       .  S
C108        H112   1.108       .  S
C108        H113   1.111       .  S
C108        H114   1.110       .  S
C115        C116   1.415       .  A
C115        C120   1.411       .  A
C115        H122   1.083       .  S
C116        C503   1.427       .  A
C117        C118   1.408       .  A
C117        C502   1.427       .  A
C117        C124   1.505       .  S
C118        C505   1.397       .  A
C118        H123   1.084       .  S
C119        C120   1.409       .  A
C119        C504   1.397       .  A
C120        C121   1.503       .  S
C121        H125   1.108       .  S
C121        H126   1.110       .  S
C121        H127   1.109       .  S
C124        H128   1.110       .  S
C124        H129   1.110       .  S
C124        H130   1.111       .  S
C131        C132   1.401       .  A
C131        C136   1.402       .  A
C131        H138   1.078       .  S
C132        C133   1.417       .  A
C133        C134   1.411       .  A
C133        C140   1.503       .  S
C134        C135   1.406       .  A
C134        H139   1.085       .  S
C135        C136   1.415       .  A
C136        C137   1.509       .  S
C137        H141   1.111       .  S
C137        H142   1.109       .  S
C137        H143   1.111       .  S
C140        H144   1.110       .  S
C140        H145   1.108       .  S
C140        H146   1.109       .  S
C147        C148   1.400   1_655  A
C147        C152   1.406       .  A
C147        H154   1.084       .  S
C148        C149   1.419       .  A
C149        C150   1.405       .  A
C149        C156   1.500       .  S
C150        C151   1.399   1_455  A
C150        H155   1.082       .  S
C151        C152   1.420       .  A
C152        C153   1.511       .  S
C153        H157   1.111       .  S
C153        H159   1.109       .  S
C153        H930   1.105       .  S
C156        H160   1.111       .  S
C156        H161   1.102       .  S
C156        H162   1.110       .  S
H158        C925   1.105       .  S
C163        C164   1.399       .  A
C163        C168   1.404       .  A
C163        H170   1.084       .  S
C164        C165   1.415       .  A
C165        C166   1.402       .  A
C165        C172   1.501       .  S
C166        C167   1.397       .  A
C166        H171   1.084       .  S
C167        C168   1.415       .  A
C168        C555   1.506       .  S
C169        C554   1.506       .  S
C169        H173   1.111       .  S
C169        H174   1.107       .  S
C169        H175   1.109       .  S
C172        H176   1.108       .  S
C172        H177   1.109       .  S
C172        H178   1.111       .  S
C179        C180   1.405       .  A
C179        C184   1.407       .  A
C179        H186   1.084       .  S
C180        C181   1.409       .  A
C181        C182   1.405       .  A
C181        C188   1.506       .  S
C182        C183   1.407       .  A
C182        H187   1.084       .  S
C183        C184   1.409       .  A
C184        C185   1.503       .  S
C185        H189   1.108       .  S
C185        H190   1.110       .  S
C185        H191   1.107       .  S
C188        H192   1.110       .  S
C188        H193   1.109       .  S
C188        H194   1.111       .  S
C195        C196   1.407       .  A
C195        C200   1.414       .  A
C195        H202   1.083   1_455  S
C196        C197   1.412       .  A
C197        C198   1.400       .  A
C197        C204   1.505       .  S
C198        C199   1.403       .  A
C198        H203   1.082       .  S
C199        C200   1.416       .  A
C200        C201   1.505   1_455  S
C201        H205   1.111       .  S
C201        H206   1.109       .  S
C201        H207   1.110       .  S
C204        H208   1.106       .  S
C204        H209   1.104       .  S
C204        H210   1.107       .  S
C211        C212   1.414       .  A
C211        C216   1.416       .  A
C211        H218   1.083       .  S
C212        C213   1.413       .  A
C213        C214   1.389       .  A
C213        C220   1.500       .  S
C214        C215   1.400       .  A
C214        H219   1.083       .  S
C215        C216   1.414       .  A
C216        C217   1.505       .  S
C217        H221   1.111       .  S
C217        H222   1.110       .  S
C217        H223   1.105       .  S
C220        H224   1.110       .  S
C220        H225   1.102       .  S
C220        H226   1.111       .  S
C227        C228   1.412       .  A
C227        C232   1.418       .  A
C227        H234   1.083       .  S
C228        C229   1.414       .  A
C229        C230   1.400       .  A
C229        C236   1.510       .  S
C230        C231   1.413       .  A
C230        H235   1.084       .  S
C231        C232   1.420       .  A
C232        C619   1.497       .  S
C233        C618   1.497   1_545  S
C233        H237   1.111       .  S
C233        H238   1.109       .  S
C233        H239   1.105       .  S
C236        H240   1.110       .  S
C236        H241   1.100       .  S
C236        H242   1.111       .  S
C243        C244   1.412       .  A
C243        C248   1.409       .  A
C243        H250   1.084   1_554  S
C244        C245   1.422       .  A
C245        C246   1.413       .  A
C245        C252   1.503       .  S
C246        C247   1.406       .  A
C246        H251   1.080       .  S
C247        C248   1.414       .  A
C248        C249   1.501   1_554  S
C249        H253   1.108   1_556  S
C249        H254   1.106       .  S
C249        H255   1.110       .  S
C252        H256   1.106       .  S
C252        H257   1.107       .  S
C252        H258   1.112       .  S
C259        C260   1.406   1_554  A
C259        C264   1.423       .  A
C259        H266   1.083       .  S
C260       C1033   1.411       .  A
C261        C262   1.403       .  A
C261       C1032   1.411       .  A
C261        C268   1.507       .  S
C262       C1035   1.409       .  A
C262        H267   1.084       .  S
C263        C264   1.425   1_556  A
C263       C1034   1.409       .  A
C264        C265   1.502       .  S
C265        H269   1.111       .  S
C265        H270   1.108       .  S
C265        H271   1.110       .  S
C268        H272   1.108       .  S
C268        H273   1.106       .  S
C268        H274   1.109       .  S
C275        C276   1.397       .  A
C275        C280   1.409       .  A
C275        H282   1.080       .  S
C276        C663   1.408   1_545  A
C277        C278   1.419       .  A
C277        C662   1.408       .  A
C277        C284   1.502   1_554  S
C278        C665   1.420       .  A
C278        H283   1.082       .  S
C279        C280   1.430       .  A
C279        C664   1.420   1_545  A
C280        C281   1.503       .  S
C281        H285   1.111       .  S
C281        H286   1.109       .  S
C281        H287   1.105       .  S
C284        H288   1.109       .  S
C284        H289   1.108   1_556  S
C284        H290   1.109       .  S
C291        C292   1.406       .  A
C291        C296   1.414       .  A
C291        H298   1.078       .  S
C292        C293   1.414       .  A
C293        C294   1.396       .  A
C293        C300   1.507       .  S
C294        C295   1.402       .  A
C294        H299   1.081       .  S
C295        C296   1.418       .  A
C296        C297   1.506       .  S
C297        H301   1.111       .  S
C297        H302   1.110       .  S
C297        H303   1.110       .  S
C300        H304   1.107       .  S
C300        H305   1.110       .  S
C300        H306   1.107       .  S
C307        C308   1.410   1_565  A
C307        C312   1.413   1_565  A
C307        H314   1.082       .  S
C308        C309   1.411       .  A
C309        C310   1.397       .  A
C309        C316   1.507       .  S
C310        C311   1.397       .  A
C310        H315   1.072       .  S
C311        C312   1.408       .  A
C312        C313   1.503   1_545  S
C313        H317   1.111       .  S
C313        H318   1.110       .  S
C313        H319   1.111       .  S
C316        H320   1.102       .  S
C316        H322   1.109       .  S
C316        H707   1.105       .  S
H321        C702   1.105       .  S
C323        C324   1.404       .  A
C323        C328   1.393       .  A
C323        H330   1.083       .  S
C324        C325   1.422       .  A
C325        C326   1.419       .  A
C325        C332   1.505       .  S
C326        C327   1.406       .  A
C326        H331   1.082       .  S
C327        C328   1.417       .  A
C328        C329   1.513       .  S
C329        H333   1.110       .  S
C329        H334   1.110       .  S
C329        H335   1.105       .  S
C332        H336   1.110       .  S
C332        H337   1.110       .  S
C332        H338   1.111       .  S
C339        C340   1.407   1_565  A
C339        C344   1.419   1_565  A
C339        H732   1.083       .  S
C340        C341   1.416       .  A
C341        C342   1.390       .  A
C341        C348   1.513       .  S
C342        C343   1.403       .  A
C342        H347   1.084       .  S
C343        C344   1.422       .  A
C344        C345   1.505   1_545  S
C345        H349   1.111       .  S
C345        H350   1.110   1_565  S
C345        H351   1.110       .  S
H346        C725   1.083       .  S
C348        H352   1.109       .  S
C348        H353   1.105       .  S
C348        H354   1.108       .  S
C355        C356   1.407       .  A
C355        C360   1.413       .  A
C355        H362   1.084       .  S
C356        C357   1.413       .  A
C357        C358   1.396       .  A
C357        C364   1.499       .  S
C358        C359   1.395       .  A
C358        H363   1.083       .  S
C359        C360   1.417       .  A
C360        C361   1.505       .  S
C361        H365   1.111       .  S
C361        H366   1.108       .  S
C361        H367   1.110       .  S
C364        H368   1.109       .  S
C364        H369   1.106       .  S
C364        H370   1.110       .  S
C371        C372   1.401       .  A
C371        C376   1.390       .  A
C371        H378   1.086       .  S
C372        C373   1.415       .  A
C373        C374   1.420       .  A
C373        C380   1.504       .  S
C374        C375   1.412       .  A
C374        H379   1.083       .  S
C375        C376   1.415       .  A
C376        C377   1.502       .  S
C377        H381   1.111       .  S
C377        H382   1.110       .  S
C377        H383   1.097       .  S
C380        H384   1.110       .  S
C380        H385   1.107       .  S
C380        H386   1.111       .  S
O387        C402   1.264       .  A
O387       Al395   1.940       .  S
C388        O398   1.264       .  A
C388        O389   1.258       .  A
C388        C710   1.498       .  S
O389       Al391   1.873       .  S
O390        C392   1.262       .  A
O390       Al391   1.927       .  S
Al391       O399   1.928       .  S
Al391       O401   1.863       .  S
Al391       O400   1.788       .  S
C392        O405   1.260       .  A
C392        C697   1.477       .  S
O393        C403   1.265       .  A
O393       Al395   1.937       .  S
O394        C407   1.262       .  A
O394       Al404   1.928       .  S
Al395       O408   1.898       .  S
Al395       O405   1.892       .  S
Al395       O400   1.788       .  S
O396        C403   1.262       .  A
O396       Al404   1.887       .  S
O397        C406   1.262       .  A
O397       Al404   1.891       .  S
O398       Al404   1.942       .  S
O399        C406   1.264       .  A
O400       Al404   1.787       .  S
O401        C402   1.257       .  A
C402        C729   1.495       .  S
C403        C761   1.494       .  S
C406        C681   1.490       .  S
C407        O408   1.261       .  A
C407        C742   1.488       .  S
C409        C630   1.516       .  S
C409        N410   1.358       .  A
C409        N414   1.368       .  A
N410        C797   1.360       .  A
C411        C649   1.514   1_554  S
C411        N796   1.360   1_565  A
C411        N412   1.368       .  A
C413        C665   1.529       .  S
C413       N1186   1.373       .  A
N414       C1185   1.373   1_455  A
N415        C416   1.366   1_554  A
N415        C662   1.453       .  S
C416        C694   1.478       .  S
C416        C417   1.371       .  A
C417        H420   1.083       .  S
C418        C419   1.391   1_545  A
C418        H421   1.083       .  S
C419        C617   1.514       .  S
N422        C426   1.373       .  A
N422        C423   1.374   1_554  A
N422        C633   1.457       .  S
C423        C758   1.491       .  S
C423        C424   1.382       .  A
C424        C425   1.350   1_556  A
C424        H427   1.083       .  S
C425        C426   1.381       .  A
C425        H428   1.083       .  S
C426        C601   1.488       .  S
N429        C433   1.367       .  A
N429       C1202   1.365   1_556  A
N429        C646   1.451       .  S
C430        C582   1.486       .  S
C430       N1201   1.365   1_554  A
C430        C431   1.380   1_554  A
C431       C1204   1.360       .  A
C431        H434   1.079   1_556  S
C432       C1203   1.360       .  A
C432        C433   1.382       .  A
C432        H435   1.083       .  S
C433        C713   1.488       .  S
O436        C451   1.262       .  A
O436       Al444   1.925       .  S
C437        O447   1.263       .  A
C437        O438   1.258       .  A
C437        C534   1.486       .  S
O438       Al440   1.884       .  S
O439        C441   1.261       .  A
O439       Al440   1.917       .  S
Al440       O448   1.916       .  S
Al440       O450   1.896       .  S
Al440       O449   1.793       .  S
C441        O454   1.259       .  A
C441        C550   1.475       .  S
O442        C452   1.263       .  A
O442       Al444   1.918       .  S
O443        C456   1.257       .  A
O443       Al453   1.909       .  S
Al444       O457   1.897       .  S
Al444       O454   1.892       .  S
Al444       O449   1.787       .  S
O445        C452   1.262       .  A
O445       Al453   1.886       .  S
O446        C455   1.262       .  A
O446       Al453   1.905       .  S
O447       Al453   1.932       .  S
O448        C455   1.261       .  A
O449       Al453   1.795       .  S
O450        C451   1.258       .  A
C451        C614   1.504       .  S
C452        C566   1.479       .  S
C455        C585   1.486       .  S
C456        O457   1.260       .  A
C456        C598   1.494       .  S
C458        C486   1.495       .  S
C458        N459   1.365   1_655  A
C458        N849   1.356       .  A
C460        C502   1.514       .  S
C460       N1233   1.365   1_455  A
N461       C1232   1.365       .  A
N461        C462   1.360       .  A
C462        C521   1.486       .  S
C462        N463   1.355       .  A
N463        C844   1.356   1_565  A
N464        C465   1.359       .  A
N464        C505   1.444       .  S
C465        C553   1.474       .  S
C465        C466   1.376       .  A
C466        H469   1.082       .  S
C467        C468   1.384       .  A
C467        H470   1.081       .  S
C468        C726   1.487       .  S
N471        C475   1.363       .  A
N471       C1244   1.362       .  A
N471        C489   1.442       .  S
C472        C678   1.490       .  S
C472       N1243   1.362       .  A
C472        C473   1.380       .  A
C473       C1246   1.368       .  A
C473        H476   1.081       .  S
C474       C1245   1.368       .  A
C474        C475   1.383       .  A
C474        H477   1.082       .  S
C475        C537   1.490       .  S
N478        C482   1.365       .  A
N478        C479   1.363       .  A
N478        C518   1.448       .  S
C479        C745   1.479       .  S
C479        C480   1.375       .  A
C480        C481   1.369       .  A
C480        H483   1.078       .  S
C481        C482   1.382       .  A
C481        H484   1.083       .  S
C482        C569   1.484       .  S
C485       C1258   1.411       .  A
C485        C490   1.407       .  A
C485        H492   1.084       .  S
C486       C1257   1.411       .  A
C486        C487   1.416   1_655  A
C487        C488   1.405       .  A
C487        C494   1.502       .  S
C488        C489   1.399   1_455  A
C488        H493   1.083       .  S
C489       C1262   1.407       .  A
C490       C1261   1.407       .  A
C490        C491   1.502       .  S
C491        H495   1.110       .  S
C491        H496   1.107       .  S
C491        H497   1.109       .  S
C494        H498   1.108       .  S
C494        H499   1.111       .  S
C494        H500   1.110       .  S
C501        C502   1.415   1_545  A
C501        C506   1.411       .  A
C501        H508   1.083       .  S
C503        C504   1.408       .  A
C503        C510   1.505       .  S
C504        H509   1.084       .  S
C505        C506   1.409   1_565  A
C506        C507   1.503       .  S
C507        H511   1.108       .  S
C507        H512   1.110       .  S
C507        H513   1.109       .  S
C510        H514   1.110       .  S
C510        H515   1.110       .  S
C510        H516   1.111       .  S
C517        C518   1.401       .  A
C517        C522   1.402       .  A
C517        H524   1.078       .  S
C518        C519   1.417       .  A
C519        C520   1.411       .  A
C519        C526   1.503       .  S
C520        C521   1.406       .  A
C520        H525   1.085       .  S
C521        C522   1.415       .  A
C522        C523   1.509       .  S
C523        H527   1.111       .  S
C523        H528   1.109       .  S
C523        H529   1.111       .  S
C526        H530   1.110       .  S
C526        H531   1.108       .  S
C526        H532   1.109       .  S
C533        C534   1.400   1_655  A
C533        C538   1.406       .  A
C533        H540   1.084       .  S
C534        C535   1.419       .  A
C535        C536   1.405       .  A
C535        C542   1.500       .  S
C536        C537   1.399   1_455  A
C536        H541   1.082       .  S
C537        C538   1.420       .  A
C538        C539   1.511       .  S
C539        H543   1.111       .  S
C539       H1316   1.105       .  S
C539        H545   1.109       .  S
C542        H546   1.111       .  S
C542        H547   1.102       .  S
C542        H548   1.110       .  S
H544       C1311   1.105       .  S
C549        C550   1.399       .  A
C549        C554   1.404   1_565  A
C549        H556   1.084   1_565  S
C550        C551   1.415       .  A
C551        C552   1.402       .  A
C551        C558   1.501       .  S
C552        C553   1.397       .  A
C552        H557   1.084       .  S
C553        C554   1.415   1_565  A
C555        H559   1.111       .  S
C555        H560   1.107       .  S
C555        H561   1.109       .  S
C558        H562   1.108       .  S
C558        H563   1.109       .  S
C558        H564   1.111       .  S
C565        C566   1.405       .  A
C565        C570   1.407       .  A
C565        H572   1.084       .  S
C566        C567   1.409       .  A
C567        C568   1.405       .  A
C567        C574   1.506       .  S
C568        C569   1.407       .  A
C568        H573   1.084       .  S
C569        C570   1.409       .  A
C570        C571   1.503       .  S
C571        H575   1.108       .  S
C571        H576   1.110       .  S
C571        H577   1.107       .  S
C574        H578   1.110       .  S
C574        H579   1.109       .  S
C574        H580   1.111       .  S
C581        C582   1.407       .  A
C581        C586   1.414       .  A
C581        H588   1.083   1_455  S
C582        C583   1.412       .  A
C583        C584   1.400       .  A
C583        C590   1.505       .  S
C584        C585   1.403       .  A
C584        H589   1.082       .  S
C585        C586   1.416       .  A
C586        C587   1.505   1_455  S
C587        H591   1.111       .  S
C587        H592   1.109       .  S
C587        H593   1.110       .  S
C590        H594   1.106       .  S
C590        H595   1.104       .  S
C590        H596   1.107       .  S
C597        C598   1.414       .  A
C597        C602   1.416       .  A
C597        H604   1.083       .  S
C598        C599   1.413       .  A
C599        C600   1.389       .  A
C599        C606   1.500       .  S
C600        C601   1.400       .  A
C600        H605   1.083       .  S
C601        C602   1.414       .  A
C602        C603   1.505       .  S
C603        H607   1.111       .  S
C603        H608   1.110       .  S
C603        H609   1.105       .  S
C606        H610   1.110       .  S
C606        H611   1.102       .  S
C606        H612   1.111       .  S
C613        C614   1.412       .  A
C613        C618   1.418       .  A
C613        H620   1.083       .  S
C614        C615   1.414       .  A
C615        C616   1.400       .  A
C615        C622   1.510       .  S
C616        C617   1.413       .  A
C616        H621   1.084       .  S
C617        C618   1.420       .  A
C619        H623   1.111       .  S
C619        H624   1.109       .  S
C619        H625   1.105       .  S
C622        H626   1.110       .  S
C622        H627   1.100       .  S
C622        H628   1.111       .  S
C629        C630   1.412       .  A
C629        C634   1.409       .  A
C629        H636   1.084   1_554  S
C630        C631   1.422       .  A
C631        C632   1.413       .  A
C631        C638   1.502       .  S
C632        C633   1.406       .  A
C632        H637   1.080       .  S
C633        C634   1.414       .  A
C634        C635   1.501   1_554  S
C635        H639   1.108   1_556  S
C635        H640   1.106       .  S
C635        H641   1.110       .  S
C638        H642   1.106       .  S
C638        H643   1.107       .  S
C638        H644   1.112       .  S
C645        C646   1.405   1_554  A
C645        C650   1.423       .  A
C645        H652   1.083       .  S
C646       C1419   1.411       .  A
C647       C1418   1.411       .  A
C647        C648   1.403       .  A
C647        C654   1.507       .  S
C648       C1421   1.409       .  A
C648        H653   1.084       .  S
C649       C1420   1.409       .  A
C649        C650   1.425   1_556  A
C650        C651   1.502       .  S
C651        H655   1.111       .  S
C651        H656   1.108       .  S
C651        H657   1.110       .  S
C654        H658   1.108       .  S
C654        H659   1.106       .  S
C654        H660   1.109       .  S
C661        C662   1.397       .  A
C661        C666   1.409       .  A
C661        H668   1.080       .  S
C663        C664   1.419       .  A
C663        C670   1.502   1_554  S
C664        H669   1.082       .  S
C665        C666   1.430       .  A
C666        C667   1.503       .  S
C667        H671   1.111       .  S
C667        H672   1.109       .  S
C667        H673   1.105       .  S
C670        H674   1.109       .  S
C670        H675   1.108   1_556  S
C670        H676   1.109       .  S
C677        C678   1.406       .  A
C677        C682   1.414       .  A
C677        H684   1.078       .  S
C678        C679   1.414       .  A
C679        C680   1.396       .  A
C679        C686   1.507       .  S
C680        C681   1.402       .  A
C680        H685   1.081       .  S
C681        C682   1.418       .  A
C682        C683   1.506       .  S
C683        H687   1.111       .  S
C683        H688   1.110       .  S
C683        H689   1.110       .  S
C686        H690   1.107       .  S
C686        H691   1.110       .  S
C686        H692   1.107       .  S
C693        C694   1.410       .  A
C693        C698   1.413       .  A
C693        H700   1.082       .  S
C694        C695   1.411       .  A
C695        C696   1.397       .  A
C695        C702   1.507       .  S
C696        C697   1.397       .  A
C696        H701   1.072       .  S
C697        C698   1.408       .  A
C698        C699   1.503       .  S
C699        H703   1.111       .  S
C699        H704   1.110       .  S
C699        H705   1.111       .  S
C702        H706   1.102       .  S
C702        H708   1.109       .  S
C709        C710   1.404       .  A
C709        C714   1.393       .  A
C709        H716   1.083       .  S
C710        C711   1.422       .  A
C711        C712   1.419       .  A
C711        C718   1.505       .  S
C712        C713   1.406       .  A
C712        H717   1.082       .  S
C713        C714   1.417       .  A
C714        C715   1.513       .  S
C715        H719   1.110       .  S
C715        H720   1.110       .  S
C715        H721   1.105       .  S
C718        H722   1.110       .  S
C718        H723   1.110       .  S
C718        H724   1.111       .  S
C725        C726   1.407       .  A
C725        C730   1.419       .  A
C726        C727   1.416       .  A
C727        C728   1.390       .  A
C727        C734   1.513       .  S
C728        C729   1.403       .  A
C728        H733   1.084       .  S
C729        C730   1.422       .  A
C730        C731   1.505       .  S
C731        H735   1.111       .  S
C731        H736   1.110       .  S
C731        H737   1.110       .  S
C734        H738   1.109       .  S
C734        H739   1.105       .  S
C734        H740   1.108       .  S
C741        C742   1.407       .  A
C741        C746   1.413       .  A
C741        H748   1.084       .  S
C742        C743   1.413       .  A
C743        C744   1.396       .  A
C743        C750   1.499       .  S
C744        C745   1.395       .  A
C744        H749   1.083       .  S
C745        C746   1.417       .  A
C746        C747   1.505       .  S
C747        H751   1.111       .  S
C747        H752   1.108       .  S
C747        H753   1.110       .  S
C750        H754   1.109       .  S
C750        H755   1.106       .  S
C750        H756   1.110       .  S
C757        C758   1.401       .  A
C757        C762   1.390       .  A
C757        H764   1.086       .  S
C758        C759   1.415       .  A
C759        C760   1.420       .  A
C759        C766   1.504       .  S
C760        C761   1.412       .  A
C760        H765   1.083       .  S
C761        C762   1.415       .  A
C762        C763   1.502       .  S
C763        H767   1.111       .  S
C763        H768   1.110       .  S
C763        H769   1.097       .  S
C766        H770   1.110       .  S
C766        H771   1.107       .  S
C766        H772   1.111       .  S
O773        C788   1.264       .  A
O773       Al781   1.940       .  S
C774        O784   1.264       .  A
C774        O775   1.258       .  A
C774       C1096   1.498       .  S
O775       Al777   1.873       .  S
O776        C778   1.262       .  A
O776       Al777   1.927       .  S
Al777       O785   1.928       .  S
Al777       O787   1.863       .  S
Al777       O786   1.788       .  S
C778        O791   1.260       .  A
C778       C1083   1.477       .  S
O779        C789   1.265       .  A
O779       Al781   1.937       .  S
O780        C793   1.262       .  A
O780       Al790   1.928       .  S
Al781       O794   1.898       .  S
Al781       O791   1.892       .  S
Al781       O786   1.788       .  S
O782        C789   1.262       .  A
O782       Al790   1.887       .  S
O783        C792   1.262       .  A
O783       Al790   1.891       .  S
O784       Al790   1.942       .  S
O785        C792   1.264       .  A
O786       Al790   1.787       .  S
O787        C788   1.257       .  A
C788       C1115   1.495       .  S
C789       C1147   1.494       .  S
C792       C1067   1.490       .  S
C793        O794   1.261       .  A
C793       C1128   1.488       .  S
C795       C1016   1.516       .  S
C795        N796   1.358       .  A
C795        N800   1.368       .  A
C797       C1035   1.514   1_554  S
C797        N798   1.368   1_455  A
N798       C1185   1.373       .  A
C799       C1051   1.529       .  S
C799       N1184   1.373   1_545  A
N801       C1191   1.381   1_545  A
N801        C802   1.366   1_554  A
N801       C1048   1.453       .  S
C802       C1080   1.478       .  S
C802        C803   1.371       .  A
C803       C1190   1.356   1_556  A
C803        H806   1.083       .  S
C804       C1189   1.356   1_554  A
C804        C805   1.391       .  A
C804        H807   1.083       .  S
C805       C1003   1.513       .  S
C805       N1187   1.381       .  A
N808        C812   1.373       .  A
N808        C809   1.374   1_554  A
N808       C1019   1.457       .  S
C809       C1144   1.491       .  S
C809        C810   1.382       .  A
C810        C811   1.350   1_556  A
C810        H813   1.083       .  S
C811        C812   1.381       .  A
C811        H814   1.083       .  S
C812        C987   1.489       .  S
N815        C819   1.367       .  A
N815       C1032   1.451       .  S
C816        C968   1.486       .  S
C816        C817   1.380   1_554  A
C817        H820   1.079   1_556  S
C818        C819   1.382       .  A
C818        H821   1.083       .  S
C819       C1099   1.488       .  S
O822        C837   1.262       .  A
O822       Al830   1.925       .  S
C823        O833   1.263       .  A
C823        O824   1.258       .  A
C823        C920   1.486       .  S
O824       Al826   1.884       .  S
O825        C827   1.261       .  A
O825       Al826   1.917       .  S
Al826       O834   1.916       .  S
Al826       O836   1.896       .  S
Al826       O835   1.793       .  S
C827        O840   1.259       .  A
C827        C936   1.475       .  S
O828        C838   1.263       .  A
O828       Al830   1.918       .  S
O829        C842   1.257       .  A
O829       Al839   1.909       .  S
Al830       O843   1.897       .  S
Al830       O840   1.892       .  S
Al830       O835   1.787       .  S
O831        C838   1.262       .  A
O831       Al839   1.886       .  S
O832        C841   1.262       .  A
O832       Al839   1.905       .  S
O833       Al839   1.932       .  S
O834        C841   1.261       .  A
O835       Al839   1.795       .  S
O836        C837   1.258       .  A
C837       C1000   1.504       .  S
C838        C952   1.479       .  S
C841        C971   1.486       .  S
C842        O843   1.260       .  A
C842        C984   1.494       .  S
C844        C872   1.495       .  S
C844        N845   1.365       .  A
N845       C1232   1.367   1_545  A
C846        C888   1.514       .  S
C846       N1231   1.367       .  A
N847        C848   1.360       .  A
C848        C907   1.486       .  S
C848        N849   1.355       .  A
N850       C1240   1.364       .  A
N850        C851   1.359       .  A
N850        C891   1.444       .  S
C851        C939   1.474       .  S
C851        C852   1.376       .  A
C852       C1239   1.362       .  A
C852        H855   1.081       .  S
C853       C1238   1.362       .  A
C853        C854   1.384   1_565  A
C853        H856   1.081       .  S
C854       C1112   1.487       .  S
C854       N1236   1.364   1_545  A
N857        C861   1.363       .  A
N857        C875   1.442       .  S
C858       C1064   1.490       .  S
C858        C859   1.380       .  A
C859        H862   1.081       .  S
C860        C861   1.383       .  A
C860        H863   1.082       .  S
C861        C923   1.490       .  S
N864        C868   1.365       .  A
N864        C865   1.363       .  A
N864        C904   1.448       .  S
C865       C1131   1.479       .  S
C865        C866   1.375       .  A
C866        C867   1.369       .  A
C866        H869   1.078       .  S
C867        C868   1.382       .  A
C867        H870   1.083       .  S
C868        C955   1.484       .  S
C871        C876   1.407       .  A
C871        H878   1.084       .  S
C872        C873   1.416       .  A
C873        C874   1.405       .  A
C873        C880   1.502       .  S
C874        C875   1.399       .  A
C874        H879   1.083       .  S
C876        C877   1.502       .  S
C877        H881   1.110       .  S
C877        H882   1.107       .  S
C877        H883   1.109       .  S
C880        H884   1.108       .  S
C880        H885   1.111       .  S
C880        H886   1.110       .  S
C887        C888   1.415       .  A
C887        C892   1.411       .  A
C887        H894   1.083       .  S
C888       C1275   1.427       .  A
C889       C1274   1.427       .  A
C889        C890   1.408       .  A
C889        C896   1.505       .  S
C890       C1277   1.397       .  A
C890        H895   1.084       .  S
C891       C1276   1.397       .  A
C891        C892   1.409       .  A
C892        C893   1.503       .  S
C893        H897   1.108       .  S
C893        H898   1.110       .  S
C893        H899   1.109       .  S
C896        H900   1.110       .  S
C896        H901   1.110       .  S
C896        H902   1.111       .  S
C903        C904   1.401       .  A
C903        C908   1.402       .  A
C903        H910   1.078       .  S
C904        C905   1.417       .  A
C905        C906   1.411       .  A
C905        C912   1.503       .  S
C906        C907   1.406       .  A
C906        H911   1.085       .  S
C907        C908   1.415       .  A
C908        C909   1.509       .  S
C909        H913   1.111       .  S
C909        H914   1.109       .  S
C909        H915   1.111       .  S
C912        H916   1.110       .  S
C912        H917   1.108       .  S
C912        H918   1.109       .  S
C919        C920   1.400       .  A
C919        C924   1.406       .  A
C919        H926   1.084       .  S
C920        C921   1.419       .  A
C921        C922   1.405       .  A
C921        C928   1.500       .  S
C922        C923   1.399       .  A
C922        H927   1.082       .  S
C923        C924   1.420       .  A
C924        C925   1.511       .  S
C925        H929   1.111       .  S
C925        H931   1.109       .  S
C928        H932   1.111       .  S
C928        H933   1.102       .  S
C928        H934   1.110       .  S
C935        C936   1.399       .  A
C935        C940   1.404       .  A
C935        H942   1.084       .  S
C936        C937   1.415       .  A
C937        C938   1.402       .  A
C937        C944   1.501       .  S
C938        C939   1.397       .  A
C938        H943   1.084       .  S
C939        C940   1.415       .  A
C940       C1327   1.506       .  S
C941       C1326   1.506       .  S
C941        H945   1.111       .  S
C941        H946   1.107       .  S
C941        H947   1.109       .  S
C944        H948   1.108       .  S
C944        H949   1.109       .  S
C944        H950   1.111       .  S
C951        C952   1.405       .  A
C951        C956   1.407       .  A
C951        H958   1.084       .  S
C952        C953   1.409       .  A
C953        C954   1.405       .  A
C953        C960   1.506       .  S
C954        C955   1.407       .  A
C954        H959   1.084       .  S
C955        C956   1.409       .  A
C956        C957   1.503       .  S
C957        H961   1.108       .  S
C957        H962   1.110       .  S
C957        H963   1.107       .  S
C960        H964   1.110       .  S
C960        H965   1.109       .  S
C960        H966   1.111       .  S
C967        C968   1.407       .  A
C967        C972   1.414       .  A
C967        H974   1.083       .  S
C968        C969   1.412       .  A
C969        C970   1.400       .  A
C969        C976   1.505       .  S
C970        C971   1.403       .  A
C970        H975   1.082       .  S
C971        C972   1.416       .  A
C972        C973   1.505       .  S
C973        H977   1.111       .  S
C973        H978   1.109       .  S
C973        H979   1.110       .  S
C976        H980   1.106       .  S
C976        H981   1.104       .  S
C976        H982   1.107       .  S
C983        C984   1.414       .  A
C983        C988   1.416       .  A
C983        H990   1.083       .  S
C984        C985   1.413       .  A
C985        C986   1.389       .  A
C985        C992   1.500       .  S
C986        C987   1.400       .  A
C986        H991   1.083       .  S
C987        C988   1.414       .  A
C988        C989   1.505       .  S
C989        H993   1.111       .  S
C989        H994   1.110       .  S
C989        H995   1.105       .  S
C992        H996   1.110       .  S
C992        H997   1.102       .  S
C992        H998   1.111       .  S
C999       C1000   1.412       .  A
C999       C1004   1.418       .  A
C999       H1006   1.083       .  S
C1000      C1001   1.414       .  A
C1001      C1002   1.400       .  A
C1001      C1008   1.510       .  S
C1002      C1003   1.413       .  A
C1002      H1007   1.084       .  S
C1003      C1004   1.420       .  A
C1004      C1391   1.497       .  S
C1005      C1390   1.497   1_545  S
C1005      H1009   1.111       .  S
C1005      H1010   1.109       .  S
C1005      H1011   1.105       .  S
C1008      H1012   1.110       .  S
C1008      H1013   1.100       .  S
C1008      H1014   1.111       .  S
C1015      C1016   1.412       .  A
C1015      C1020   1.409       .  A
C1015      H1022   1.084   1_554  S
C1016      C1017   1.422       .  A
C1017      C1018   1.413       .  A
C1017      C1024   1.503       .  S
C1018      C1019   1.406       .  A
C1018      H1023   1.080       .  S
C1019      C1020   1.414       .  A
C1020      C1021   1.501   1_554  S
C1021      H1025   1.108   1_556  S
C1021      H1026   1.106       .  S
C1021      H1027   1.110       .  S
C1024      H1028   1.106       .  S
C1024      H1029   1.107       .  S
C1024      H1030   1.112       .  S
C1031      C1032   1.406   1_654  A
C1031      C1036   1.423       .  A
C1031      H1038   1.083       .  S
C1033      C1034   1.403       .  A
C1033      C1040   1.507       .  S
C1034      H1039   1.084       .  S
C1035      C1036   1.425   1_456  A
C1036      C1037   1.502       .  S
C1037      H1041   1.111       .  S
C1037      H1042   1.108       .  S
C1037      H1043   1.110       .  S
C1040      H1044   1.108       .  S
C1040      H1045   1.106       .  S
C1040      H1046   1.109       .  S
C1047      C1048   1.397       .  A
C1047      C1052   1.409       .  A
C1047      H1054   1.080       .  S
C1048      C1435   1.408   1_545  A
C1049      C1434   1.408       .  A
C1049      C1050   1.419       .  A
C1049      C1056   1.502   1_554  S
C1050      C1437   1.420       .  A
C1050      H1055   1.082       .  S
C1051      C1436   1.420   1_545  A
C1051      C1052   1.430       .  A
C1052      C1053   1.503       .  S
C1053      H1057   1.111       .  S
C1053      H1058   1.109       .  S
C1053      H1059   1.105       .  S
C1056      H1060   1.109       .  S
C1056      H1061   1.108   1_556  S
C1056      H1062   1.109       .  S
C1063      C1064   1.406       .  A
C1063      C1068   1.414       .  A
C1063      H1070   1.078   1_655  S
C1064      C1065   1.414       .  A
C1065      C1066   1.396       .  A
C1065      C1072   1.507       .  S
C1066      C1067   1.402       .  A
C1066      H1071   1.081       .  S
C1067      C1068   1.418       .  A
C1068      C1069   1.506       .  S
C1069      H1073   1.111   1_655  S
C1069      H1074   1.110       .  S
C1069      H1075   1.110   1_655  S
C1072      H1076   1.107       .  S
C1072      H1077   1.110       .  S
C1072      H1078   1.107       .  S
C1079      C1080   1.410   1_565  A
C1079      C1084   1.413   1_565  A
C1079      H1086   1.082       .  S
C1080      C1081   1.411       .  A
C1081      C1082   1.397       .  A
C1081      C1088   1.507       .  S
C1082      C1083   1.397       .  A
C1082      H1087   1.072       .  S
C1083      C1084   1.408       .  A
C1084      C1085   1.503   1_545  S
C1085      H1089   1.111       .  S
C1085      H1090   1.110       .  S
C1085      H1091   1.111       .  S
C1088      H1092   1.102       .  S
C1088      H1479   1.105       .  S
C1088      H1094   1.109       .  S
H1093      C1474   1.105       .  S
C1095      C1096   1.404       .  A
C1095      C1100   1.393       .  A
C1095      H1102   1.083       .  S
C1096      C1097   1.422       .  A
C1097      C1098   1.419   1_655  A
C1097      C1104   1.505   1_655  S
C1098      C1099   1.406       .  A
C1098      H1103   1.082       .  S
C1099      C1100   1.417   1_455  A
C1100      C1101   1.513       .  S
C1101      H1105   1.110       .  S
C1101      H1106   1.110       .  S
C1101      H1107   1.105       .  S
C1104      H1108   1.110   1_455  S
C1104      H1109   1.110       .  S
C1104      H1110   1.111       .  S
C1111      C1112   1.407   1_565  A
C1111      C1116   1.419   1_565  A
C1111      H1504   1.083       .  S
C1112      C1113   1.416       .  A
C1113      C1114   1.390       .  A
C1113      C1120   1.513       .  S
C1114      C1115   1.403       .  A
C1114      H1119   1.084       .  S
C1115      C1116   1.422       .  A
C1116      C1117   1.505   1_545  S
C1117      H1121   1.111       .  S
C1117      H1122   1.110   1_565  S
C1117      H1123   1.110       .  S
H1118      C1497   1.083       .  S
C1120      H1124   1.109       .  S
C1120      H1125   1.105       .  S
C1120      H1126   1.108       .  S
C1127      C1128   1.407       .  A
C1127      C1132   1.413       .  A
C1127      H1134   1.084       .  S
C1128      C1129   1.413       .  A
C1129      C1130   1.396       .  A
C1129      C1136   1.499       .  S
C1130      C1131   1.395       .  A
C1130      H1135   1.083       .  S
C1131      C1132   1.417       .  A
C1132      C1133   1.505       .  S
C1133      H1137   1.111       .  S
C1133      H1138   1.108       .  S
C1133      H1139   1.110       .  S
C1136      H1140   1.109       .  S
C1136      H1141   1.106       .  S
C1136      H1142   1.110       .  S
C1143      C1144   1.401       .  A
C1143      C1148   1.390       .  A
C1143      H1150   1.086       .  S
C1144      C1145   1.415       .  A
C1145      C1146   1.420       .  A
C1145      C1152   1.504       .  S
C1146      C1147   1.412       .  A
C1146      H1151   1.083       .  S
C1147      C1148   1.415       .  A
C1148      C1149   1.502       .  S
C1149      H1153   1.111       .  S
C1149      H1154   1.110       .  S
C1149      H1155   1.097       .  S
C1152      H1156   1.110       .  S
C1152      H1157   1.107       .  S
C1152      H1158   1.111       .  S
O1159      C1174   1.264       .  A
O1159     Al1167   1.940       .  S
C1160      O1170   1.264       .  A
C1160      O1161   1.258       .  A
C1160      C1482   1.498       .  S
O1161     Al1163   1.873       .  S
O1162      C1164   1.262       .  A
O1162     Al1163   1.927       .  S
Al1163     O1171   1.928       .  S
Al1163     O1173   1.863       .  S
Al1163     O1172   1.788       .  S
C1164      O1177   1.260       .  A
C1164      C1469   1.477       .  S
O1165      C1175   1.265       .  A
O1165     Al1167   1.937       .  S
O1166      C1179   1.262       .  A
O1166     Al1176   1.928       .  S
Al1167     O1180   1.898       .  S
Al1167     O1177   1.892       .  S
Al1167     O1172   1.788       .  S
O1168      C1175   1.262       .  A
O1168     Al1176   1.887       .  S
O1169      C1178   1.262       .  A
O1169     Al1176   1.891       .  S
O1170     Al1176   1.942       .  S
O1171      C1178   1.264       .  A
O1172     Al1176   1.787       .  S
O1173      C1174   1.257       .  A
C1174      C1501   1.495       .  S
C1175      C1533   1.494       .  S
C1178      C1453   1.490       .  S
C1179      O1180   1.261       .  A
C1179      C1514   1.488       .  S
C1181      C1402   1.516       .  S
C1181      N1182   1.358       .  A
C1181      N1186   1.368       .  A
C1183      C1421   1.514   1_554  S
C1183      N1184   1.368   1_455  A
C1185      C1437   1.529       .  S
N1187      C1188   1.366   1_554  A
N1187      C1434   1.453       .  S
C1188      C1466   1.478       .  S
C1188      C1189   1.371       .  A
C1189      H1192   1.083       .  S
C1190      C1191   1.391   1_545  A
C1190      H1193   1.083       .  S
C1191      C1389   1.513       .  S
N1194      C1198   1.373       .  A
N1194      C1195   1.374   1_554  A
N1194      C1405   1.457       .  S
C1195      C1530   1.491       .  S
C1195      C1196   1.382       .  A
C1196      C1197   1.350   1_556  A
C1196      H1199   1.083       .  S
C1197      C1198   1.381       .  A
C1197      H1200   1.083       .  S
C1198      C1373   1.488       .  S
N1201      C1205   1.367       .  A
N1201      C1418   1.451       .  S
C1202      C1354   1.486       .  S
C1202      C1203   1.380   1_554  A
C1203      H1206   1.079   1_556  S
C1204      C1205   1.382       .  A
C1204      H1207   1.083       .  S
C1205      C1485   1.488       .  S
O1208      C1223   1.262       .  A
O1208     Al1216   1.925       .  S
C1209      O1219   1.263       .  A
C1209      O1210   1.258       .  A
C1209      C1306   1.486       .  S
O1210     Al1212   1.884       .  S
O1211      C1213   1.261       .  A
O1211     Al1212   1.917       .  S
Al1212     O1220   1.916       .  S
Al1212     O1222   1.896       .  S
Al1212     O1221   1.793       .  S
C1213      O1226   1.259       .  A
C1213      C1322   1.475       .  S
O1214      C1224   1.263       .  A
O1214     Al1216   1.918       .  S
O1215      C1228   1.257       .  A
O1215     Al1225   1.909       .  S
Al1216     O1229   1.897       .  S
Al1216     O1226   1.892       .  S
Al1216     O1221   1.787       .  S
O1217      C1224   1.262       .  A
O1217     Al1225   1.886       .  S
O1218      C1227   1.262       .  A
O1218     Al1225   1.905       .  S
O1219     Al1225   1.932       .  S
O1220      C1227   1.261       .  A
O1221     Al1225   1.795       .  S
O1222      C1223   1.258       .  A
C1223      C1386   1.504       .  S
C1224      C1338   1.479       .  S
C1227      C1357   1.486       .  S
C1228      O1229   1.260       .  A
C1228      C1370   1.494       .  S
C1230      C1258   1.495       .  S
C1230      N1231   1.365       .  A
C1232      C1274   1.514       .  S
N1233      C1234   1.360       .  A
C1234      C1293   1.486       .  S
C1234      N1235   1.355       .  A
N1236      C1237   1.359       .  A
N1236      C1277   1.444       .  S
C1237      C1325   1.474       .  S
C1237      C1238   1.376       .  A
C1238      H1241   1.082       .  S
C1239      C1240   1.384       .  A
C1239      H1242   1.081       .  S
C1240      C1498   1.487       .  S
N1243      C1247   1.363       .  A
N1243      C1261   1.442       .  S
C1244      C1450   1.490       .  S
C1244      C1245   1.380       .  A
C1245      H1248   1.081       .  S
C1246      C1247   1.383       .  A
C1246      H1249   1.082       .  S
C1247      C1309   1.490       .  S
N1250      C1254   1.365       .  A
N1250      C1251   1.363       .  A
N1250      C1290   1.448       .  S
C1251      C1517   1.479       .  S
C1251      C1252   1.375       .  A
C1252      C1253   1.369       .  A
C1252      H1255   1.078       .  S
C1253      C1254   1.382       .  A
C1253      H1256   1.083       .  S
C1254      C1341   1.484       .  S
C1257      C1262   1.407       .  A
C1257      H1264   1.084       .  S
C1258      C1259   1.416       .  A
C1259      C1260   1.405       .  A
C1259      C1266   1.502       .  S
C1260      C1261   1.399       .  A
C1260      H1265   1.083       .  S
C1262      C1263   1.502       .  S
C1263      H1267   1.110       .  S
C1263      H1268   1.107       .  S
C1263      H1269   1.109       .  S
C1266      H1270   1.108       .  S
C1266      H1271   1.111       .  S
C1266      H1272   1.110       .  S
C1273      C1274   1.415   1_545  A
C1273      C1278   1.411       .  A
C1273      H1280   1.083       .  S
C1275      C1276   1.408       .  A
C1275      C1282   1.505       .  S
C1276      H1281   1.084       .  S
C1277      C1278   1.409   1_565  A
C1278      C1279   1.503       .  S
C1279      H1283   1.108       .  S
C1279      H1284   1.110       .  S
C1279      H1285   1.109       .  S
C1282      H1286   1.110       .  S
C1282      H1287   1.110       .  S
C1282      H1288   1.111       .  S
C1289      C1290   1.401       .  A
C1289      C1294   1.402       .  A
C1289      H1296   1.078       .  S
C1290      C1291   1.417       .  A
C1291      C1292   1.411       .  A
C1291      C1298   1.503       .  S
C1292      C1293   1.406       .  A
C1292      H1297   1.085       .  S
C1293      C1294   1.415       .  A
C1294      C1295   1.509       .  S
C1295      H1299   1.111       .  S
C1295      H1300   1.109       .  S
C1295      H1301   1.111       .  S
C1298      H1302   1.110       .  S
C1298      H1303   1.108       .  S
C1298      H1304   1.109       .  S
C1305      C1306   1.400       .  A
C1305      C1310   1.406       .  A
C1305      H1312   1.084       .  S
C1306      C1307   1.419       .  A
C1307      C1308   1.405       .  A
C1307      C1314   1.500       .  S
C1308      C1309   1.399       .  A
C1308      H1313   1.082       .  S
C1309      C1310   1.420       .  A
C1310      C1311   1.511       .  S
C1311      H1315   1.111       .  S
C1311      H1317   1.109       .  S
C1314      H1318   1.111       .  S
C1314      H1319   1.102       .  S
C1314      H1320   1.110       .  S
C1321      C1322   1.399       .  A
C1321      C1326   1.404   1_565  A
C1321      H1328   1.084   1_565  S
C1322      C1323   1.415       .  A
C1323      C1324   1.402       .  A
C1323      C1330   1.501       .  S
C1324      C1325   1.397       .  A
C1324      H1329   1.084       .  S
C1325      C1326   1.415   1_565  A
C1327      H1331   1.111       .  S
C1327      H1332   1.107       .  S
C1327      H1333   1.109       .  S
C1330      H1334   1.108       .  S
C1330      H1335   1.109       .  S
C1330      H1336   1.111       .  S
C1337      C1338   1.405       .  A
C1337      C1342   1.407       .  A
C1337      H1344   1.084       .  S
C1338      C1339   1.409       .  A
C1339      C1340   1.405       .  A
C1339      C1346   1.506       .  S
C1340      C1341   1.407       .  A
C1340      H1345   1.084       .  S
C1341      C1342   1.409       .  A
C1342      C1343   1.503       .  S
C1343      H1347   1.108       .  S
C1343      H1348   1.110       .  S
C1343      H1349   1.107       .  S
C1346      H1350   1.110       .  S
C1346      H1351   1.109       .  S
C1346      H1352   1.111       .  S
C1353      C1354   1.407       .  A
C1353      C1358   1.414       .  A
C1353      H1360   1.083       .  S
C1354      C1355   1.412       .  A
C1355      C1356   1.400       .  A
C1355      C1362   1.505       .  S
C1356      C1357   1.403       .  A
C1356      H1361   1.082       .  S
C1357      C1358   1.416       .  A
C1358      C1359   1.505       .  S
C1359      H1363   1.111       .  S
C1359      H1364   1.109       .  S
C1359      H1365   1.110       .  S
C1362      H1366   1.106       .  S
C1362      H1367   1.104       .  S
C1362      H1368   1.107       .  S
C1369      C1370   1.414       .  A
C1369      C1374   1.416       .  A
C1369      H1376   1.083       .  S
C1370      C1371   1.413       .  A
C1371      C1372   1.389       .  A
C1371      C1378   1.500       .  S
C1372      C1373   1.400       .  A
C1372      H1377   1.083       .  S
C1373      C1374   1.414       .  A
C1374      C1375   1.505       .  S
C1375      H1379   1.111       .  S
C1375      H1380   1.110       .  S
C1375      H1381   1.105       .  S
C1378      H1382   1.110       .  S
C1378      H1383   1.102       .  S
C1378      H1384   1.111       .  S
C1385      C1386   1.412       .  A
C1385      C1390   1.418       .  A
C1385      H1392   1.083       .  S
C1386      C1387   1.414       .  A
C1387      C1388   1.400       .  A
C1387      C1394   1.510       .  S
C1388      C1389   1.413       .  A
C1388      H1393   1.084       .  S
C1389      C1390   1.420       .  A
C1391      H1395   1.111       .  S
C1391      H1396   1.109       .  S
C1391      H1397   1.105       .  S
C1394      H1398   1.110       .  S
C1394      H1399   1.100       .  S
C1394      H1400   1.111       .  S
C1401      C1402   1.412       .  A
C1401      C1406   1.409       .  A
C1401      H1408   1.084   1_554  S
C1402      C1403   1.422       .  A
C1403      C1404   1.413       .  A
C1403      C1410   1.502       .  S
C1404      C1405   1.406       .  A
C1404      H1409   1.080       .  S
C1405      C1406   1.414       .  A
C1406      C1407   1.501   1_554  S
C1407      H1411   1.108   1_556  S
C1407      H1412   1.106       .  S
C1407      H1413   1.110       .  S
C1410      H1414   1.106       .  S
C1410      H1415   1.107       .  S
C1410      H1416   1.112       .  S
C1417      C1418   1.405   1_654  A
C1417      C1422   1.423       .  A
C1417      H1424   1.083       .  S
C1419      C1420   1.403       .  A
C1419      C1426   1.507       .  S
C1420      H1425   1.084       .  S
C1421      C1422   1.425   1_456  A
C1422      C1423   1.502       .  S
C1423      H1427   1.111       .  S
C1423      H1428   1.108       .  S
C1423      H1429   1.110       .  S
C1426      H1430   1.108       .  S
C1426      H1431   1.106       .  S
C1426      H1432   1.109       .  S
C1433      C1434   1.397       .  A
C1433      C1438   1.409       .  A
C1433      H1440   1.080       .  S
C1435      C1436   1.419       .  A
C1435      C1442   1.502   1_554  S
C1436      H1441   1.082       .  S
C1437      C1438   1.430       .  A
C1438      C1439   1.503       .  S
C1439      H1443   1.111       .  S
C1439      H1444   1.109       .  S
C1439      H1445   1.105       .  S
C1442      H1446   1.109       .  S
C1442      H1447   1.108   1_556  S
C1442      H1448   1.109       .  S
C1449      C1450   1.406       .  A
C1449      C1454   1.414       .  A
C1449      H1456   1.078   1_655  S
C1450      C1451   1.414       .  A
C1451      C1452   1.396       .  A
C1451      C1458   1.507       .  S
C1452      C1453   1.402       .  A
C1452      H1457   1.081       .  S
C1453      C1454   1.418       .  A
C1454      C1455   1.506       .  S
C1455      H1459   1.111   1_655  S
C1455      H1460   1.110       .  S
C1455      H1461   1.110   1_655  S
C1458      H1462   1.107       .  S
C1458      H1463   1.110       .  S
C1458      H1464   1.107       .  S
C1465      C1466   1.410       .  A
C1465      C1470   1.413       .  A
C1465      H1472   1.082       .  S
C1466      C1467   1.411       .  A
C1467      C1468   1.397       .  A
C1467      C1474   1.507       .  S
C1468      C1469   1.397       .  A
C1468      H1473   1.072       .  S
C1469      C1470   1.408       .  A
C1470      C1471   1.503       .  S
C1471      H1475   1.111       .  S
C1471      H1476   1.110       .  S
C1471      H1477   1.111       .  S
C1474      H1478   1.102       .  S
C1474      H1480   1.109       .  S
C1481      C1482   1.404       .  A
C1481      C1486   1.393       .  A
C1481      H1488   1.083       .  S
C1482      C1483   1.422       .  A
C1483      C1484   1.419   1_655  A
C1483      C1490   1.505   1_655  S
C1484      C1485   1.406       .  A
C1484      H1489   1.082       .  S
C1485      C1486   1.417   1_455  A
C1486      C1487   1.513       .  S
C1487      H1491   1.110       .  S
C1487      H1492   1.110       .  S
C1487      H1493   1.105       .  S
C1490      H1494   1.110   1_455  S
C1490      H1495   1.110       .  S
C1490      H1496   1.111       .  S
C1497      C1498   1.407       .  A
C1497      C1502   1.419       .  A
C1498      C1499   1.416       .  A
C1499      C1500   1.390       .  A
C1499      C1506   1.513       .  S
C1500      C1501   1.403       .  A
C1500      H1505   1.084       .  S
C1501      C1502   1.422       .  A
C1502      C1503   1.505       .  S
C1503      H1507   1.111       .  S
C1503      H1508   1.110       .  S
C1503      H1509   1.110       .  S
C1506      H1510   1.109       .  S
C1506      H1511   1.105       .  S
C1506      H1512   1.108       .  S
C1513      C1514   1.407       .  A
C1513      C1518   1.413       .  A
C1513      H1520   1.084       .  S
C1514      C1515   1.413       .  A
C1515      C1516   1.396       .  A
C1515      C1522   1.499       .  S
C1516      C1517   1.395       .  A
C1516      H1521   1.083       .  S
C1517      C1518   1.417       .  A
C1518      C1519   1.505       .  S
C1519      H1523   1.111       .  S
C1519      H1524   1.108       .  S
C1519      H1525   1.110       .  S
C1522      H1526   1.109       .  S
C1522      H1527   1.106       .  S
C1522      H1528   1.110       .  S
C1529      C1530   1.401       .  A
C1529      C1534   1.390       .  A
C1529      H1536   1.086       .  S
C1530      C1531   1.415       .  A
C1531      C1532   1.420       .  A
C1531      C1538   1.504       .  S
C1532      C1533   1.412       .  A
C1532      H1537   1.083       .  S
C1533      C1534   1.415       .  A
C1534      C1535   1.502       .  S
C1535      H1539   1.111       .  S
C1535      H1540   1.110       .  S
C1535      H1541   1.097       .  S
C1538      H1542   1.110       .  S
C1538      H1543   1.107       .  S
C1538      H1544   1.111       .  S
