geometry optimzed in LAMMPS
_audit_creation_date              2020-12-01 
_audit_creation_method            'lammps2cif' 
_symmetry_space_group_name_H-M    'P1' 
_symmetry_Int_Tables_number       1 
_symmetry_cell_setting            triclinic 
loop_ 
_symmetry_equiv_pos_as_xyz 
  x,y,z 
_cell_length_a                    43.02236369 
_cell_length_b                    43.31456849757211 
_cell_length_c                    27.061062107748548 
_cell_angle_alpha                 89.60711960860147 
_cell_angle_beta                  93.41636698607343 
_cell_angle_gamma                 70.61103845557543 
loop_ 
_atom_site_label 
_atom_site_type_symbol 
_atom_site_fract_x 
_atom_site_fract_y 
_atom_site_fract_z 
_atom_site_charge 
O1          O  0.09757282  0.46152262  0.08290274    -0.73900
O2          O  0.08888577  0.01367225  0.05463899    -0.52800
C3          C  0.10638089  0.98786616  0.07975423     0.79800
O4          O  0.01834259  0.41070901  0.39650362    -0.58500
O5          O  0.47173191  0.41436283  0.44156384    -0.51500
C6          C  0.49258281  0.40125562  0.40917669     0.71800
O7          O  0.08334763  0.47423388  0.40011388    -0.73100
O8          O  0.08155344  0.01658026  0.43937687    -0.53600
C9          C  0.09223791  0.99526842  0.40589671     0.77800
O10         O  0.03140320  0.39950601  0.08511180    -0.58200
O11         O  0.48225916  0.40763045  0.05048272    -0.51300
C12         C  0.50759910  0.39155013  0.07895998     0.74400
Zr13       Zr  0.04697071  0.44821352  0.06783721     2.54700
O14         O  0.09619364  0.39960743  0.07434490    -0.78800
O15         O  0.04603911  0.45179260  0.15745507    -0.92200
Zr16       Zr  0.03788705  0.45588208  0.42239460     2.64700
O17         O  0.08663960  0.40721718  0.41930216    -0.97100
O18         O  0.02948947  0.46298621  0.33272386    -0.79200
O19         O  0.06182428  0.47023106  0.49628190    -0.82600
O20         O  0.02556407  0.43355197  0.49594392    -2.17300
O21         O  0.42412560  0.00976113  0.10015433    -0.65900
O22         O  0.42546020  0.46500594  0.05995938    -0.50500
C23         C  0.41417552  0.48574831  0.09382090     0.72800
O24         O  0.47243725  0.08504052  0.41608443    -0.58900
O25         O  0.02619276  0.07730647  0.44955747    -0.50800
C26         C  0.00042115  0.09422261  0.42264189     0.74600
O27         O  0.40810251  0.02006686  0.41336446    -0.70300
O28         O  0.41320803  0.47464952  0.44766704    -0.48900
C29         C  0.39671272  0.50014776  0.42075371     0.76000
O30         O  0.48862335  0.07504088  0.09812630    -0.65600
O31         O  0.03014225  0.07172978  0.06056159    -0.52800
C32         C  0.00954642  0.08395815  0.09360489     0.74400
Zr33       Zr  0.46788357  0.03027895  0.07388544     2.77500
O34         O  0.41968291  0.07979822  0.06909094    -0.96300
O35         O  0.47234311  0.02986635  0.16405723    -0.77200
Zr36       Zr  0.45686084  0.03635942  0.43331472     2.70100
O37         O  0.40745040  0.08363185  0.44137754    -0.78400
O38         O  0.45377146  0.04053252  0.34343704    -0.97500
Zr39       Zr  0.03853404  0.02805407  0.00213415     2.21500
Zr40       Zr  0.46458645  0.45836519  0.49927828     2.11100
O41         O  0.44438648  0.01557261  0.00004297    -2.46200
O42         O  0.48128878  0.05134406  0.99987687    -0.78200
O43         O  0.48998827  0.47130825  0.07456716    -0.70400
O44         O  0.01569832  0.01386720  0.42469013    -2.31300
O45         O  0.02594662  0.00604677  0.07610361    -2.27600
O46         O  0.47827824  0.47867830  0.42444927    -0.72100
H47         H  0.03260608  0.40998134  0.49415148     0.79800
H48         H  0.02229081  0.02326100  0.39628262     0.80900
H49         H  0.42067497  0.02272040  0.00170519     0.83200
H50         H  0.03643169  0.01247328  0.10500963     0.80800
H51         H  0.04257016  0.44152063  0.31996329     0.43800
H52         H  0.45045683  0.02004899  0.33236020     0.42800
H53         H  0.39461846  0.08586204  0.40916400     0.42500
H54         H  0.40546867  0.07670943  0.04078438     0.40400
H55         H  0.44925844  0.03730722  0.17385756     0.43500
H56         H  0.06395150  0.43192750  0.17025248     0.38300
H57         H  0.09514409  0.38860014  0.10608409     0.44400
H58         H  0.10531179  0.41403213  0.43211952     0.40800
H59         H  0.40769378  0.07841723  0.09868092     0.45800
H60         H  0.02546787  0.44784526  0.16533862     0.44500
H61         H  0.08420820  0.39255939  0.44588070     0.44600
H62         H  0.43240124  0.05789850  0.33479286     0.45000
N63         N  0.02450345  0.23143833  0.14976604    -0.02100
C64         C  0.03552340  0.25175046  0.12239612     0.00500
C65         C  0.05537546  0.23442645  0.08672523    -0.22400
C66         C  0.05649793  0.20255758  0.09158141    -0.22600
C67         C  0.03721755  0.20124409  0.12998428     0.00400
H68         H  0.06586575  0.24444554  0.05781522     0.14200
H69         H  0.06816116  0.18287053  0.06734955     0.14200
N70         N  0.98108593  0.25211187  0.34742236    -0.02100
C71         C  0.96823720  0.28207447  0.36799550     0.00500
C72         C  0.94940357  0.28007163  0.40663694    -0.22400
C73         C  0.95061561  0.24816686  0.41045649    -0.22600
C74         C  0.97034261  0.23131904  0.37421752     0.00400
H75         H  0.93799484  0.29931999  0.43169737     0.14200
H76         H  0.94067358  0.23768102  0.43951421     0.14200
N77         N  0.26707805  0.47100045  0.15240884    -0.02100
C78         C  0.29784213  0.45813949  0.13463054     0.00500
C79         C  0.29681109  0.43794592  0.09565880    -0.22400
C80         C  0.26492995  0.43836117  0.08859029    -0.22600
C81         C  0.24719153  0.45872762  0.12343048     0.00400
H82         H  0.31677326  0.42593992  0.07253109     0.14200
H83         H  0.25517799  0.42682304  0.05900552     0.14200
N84         N  0.23726557  0.51740796  0.34822244    -0.02100
C85         C  0.25593595  0.53220263  0.37458158     0.00500
C86         C  0.23737247  0.55257934  0.40889370    -0.22400
C87         C  0.20634956  0.55017915  0.40379284    -0.22600
C88         C  0.20677932  0.52847200  0.36648251     0.00400
H89         H  0.24634872  0.56526229  0.43774754     0.14200
H90         H  0.18644460  0.56083362  0.42768019     0.14200
C91         C  0.25965559  0.48320547  0.20172410    -0.03900
C92         C  0.23724293  0.51489299  0.20911701    -0.01100
C93         C  0.23111855  0.52624809  0.25751655     0.03900
C94         C  0.24420353  0.50513177  0.29910382    -0.03900
C95         C  0.26582536  0.47329103  0.29200769    -0.01100
C96         C  0.27299629  0.46219995  0.24364026     0.03900
C97         C  0.21917266  0.53591236  0.16793639     0.38600
C98         C  0.28200645  0.45226920  0.33426460     0.38600
C99         C  0.29162671  0.42808311  0.23701763     0.37000
C100        C  0.21446482  0.56080296  0.26482299     0.37000
N101        N  0.30557600  0.40046864  0.23277308    -0.37800
N102        N  0.20247170  0.58860719  0.27050482    -0.37800
N103        N  0.29605826  0.43496514  0.36700873    -0.37300
N104        N  0.20344820  0.55394179  0.13703961    -0.37300
C105        C  0.01343122  0.23739822  0.19948782    -0.03900
C106        C  0.48108002  0.25738282  0.21089422    -0.01100
C107        C  0.47035976  0.26062794  0.25956699     0.03900
C108        C  0.99236218  0.24656447  0.29776877    -0.03900
C109        C  0.02464685  0.22626014  0.28919786    -0.01100
C110        C  0.03544271  0.22281738  0.24061767     0.03900
C111        C  0.45861377  0.27484353  0.17027869     0.38600
C112        C  0.04659306  0.20768020  0.32955145     0.38600
C113        C  0.07013110  0.20674019  0.23353201     0.37000
C114        C  0.43561009  0.27601305  0.26680445     0.37000
N115        N  0.09814278  0.19492423  0.22903087    -0.37800
N116        N  0.40757267  0.28737818  0.27143139    -0.37800
N117        N  0.06473156  0.19186632  0.36051691    -0.37300
N118        N  0.44001395  0.28977859  0.13909657    -0.37400
C119        C  0.98533296  0.19488719  0.37805285    -0.03900
C120        C  0.47166079  0.17452738  0.34769510    -0.01100
C121        C  0.47804898  0.14111785  0.36057211     0.03900
C122        C  0.99896559  0.12755110  0.40392084    -0.03900
C123        C  0.01255396  0.14741613  0.43373789    -0.01100
C124        C  0.00550298  0.18076493  0.42099523     0.03900
C125        C  0.45059346  0.18904255  0.30399751     0.38600
C126        C  0.03281965  0.13458505  0.47892074     0.38600
C127        C  0.01815854  0.20107370  0.45344543     0.37000
C128        C  0.46612682  0.12099744  0.32698278     0.37000
N129        N  0.02830097  0.21714684  0.47933855    -0.37800
N130        N  0.45687917  0.10509540  0.29952007    -0.37800
N131        N  0.04950854  0.12518430  0.51474443    -0.37300
N132        N  0.43374804  0.20024715  0.26894036    -0.37300
C133        C  0.99116546  0.37077319  0.38304104    -0.03900
C134        C  0.01700352  0.34031764  0.38646104    -0.01100
C135        C  0.01035927  0.31096092  0.37641310     0.03900
C136        C  0.97808684  0.31181430  0.36061808    -0.03900
C137        C  0.45256959  0.34177277  0.35557053    -0.01100
C138        C  0.45856289  0.37144934  0.36479589     0.03900
C139        C  0.04990301  0.33855566  0.40495920     0.38600
C140        C  0.41913944  0.34309826  0.34115088     0.38600
C141        C  0.43208608  0.40243744  0.35547879     0.37000
C142        C  0.03581398  0.28007546  0.38994537     0.37000
N143        N  0.41086636  0.42705737  0.34811104    -0.37800
N144        N  0.05679528  0.25626537  0.40265522    -0.37800
N145        N  0.39201363  0.34518967  0.33081346    -0.37300
N146        N  0.07642906  0.33628802  0.41950890    -0.37300
C147        C  0.01294413  0.11325067  0.11853719    -0.03900
C148        C  0.04392393  0.11188378  0.14049628    -0.01100
C149        C  0.05115177  0.14098138  0.14898774     0.03900
C150        C  0.02678153  0.17197519  0.13807308    -0.03900
C151        C  0.49620414  0.17492780  0.11672384    -0.01100
C152        C  0.48995553  0.14557536  0.10502826     0.03900
C153        C  0.06917190  0.08025872  0.15127866     0.38600
C154        C  0.47100620  0.20567315  0.10204790     0.38600
C155        C  0.45790711  0.14705529  0.08281358     0.37000
C156        C  0.08489737  0.13845721  0.16348617     0.37000
N157        N  0.42863796  0.14847275  0.57521180    -0.37800
N158        N  0.11228021  0.13526593  0.17396937    -0.37800
N159        N  0.44983366  0.22907853  0.08836962    -0.37300
N160        N  0.08922310  0.05502035  0.15983652    -0.37300
C161        C  0.00893043  0.35573595  0.09370421    -0.03900
C162        C  0.49498026  0.33840225  0.06959840    -0.01100
C163        C  0.50178286  0.30515095  0.08283104     0.03900
C164        C  0.02188848  0.28825784  0.11930864    -0.03900
C165        C  0.03594028  0.30734276  0.14901105    -0.01100
C166        C  0.02928349  0.34092507  0.13676792     0.03900
C167        C  0.47366657  0.35140362  0.02535262     0.38600
C168        C  0.05827294  0.29209105  0.19122999     0.38600
C169        C  0.04316485  0.36004802  0.16943044     0.37000
C170        C  0.48783371  0.28534087  0.05152435     0.37000
N171        N  0.05429696  0.37492311  0.19618441    -0.37800
N172        N  0.47609977  0.27034629  0.02598754    -0.37800
N173        N  0.07606226  0.28009940  0.22504875    -0.37300
N174        N  0.45616538  0.36121765  0.99040879    -0.37300
C175        C  0.29266849  0.51983008  0.38024842    -0.03900
C176        C  0.31201532  0.53023421  0.34806776    -0.01100
C177        C  0.34635110  0.52263374  0.35965194     0.03900
C178        C  0.36176295  0.50400846  0.40338721    -0.03900
C179        C  0.34232507  0.49171051  0.43340484    -0.01100
C180        C  0.30818130  0.49999157  0.42218881     0.03900
C181        C  0.29661511  0.54980089  0.30395224     0.38600
C182        C  0.35642886  0.47174705  0.47781536     0.38600
C183        C  0.28888368  0.48878349  0.45568493     0.37000
C184        C  0.36540145  0.53453835  0.32647132     0.37000
N185        N  0.27460345  0.47941183  0.48367897    -0.37800
N186        N  0.37888461  0.04181516  0.30359041    -0.37800
N187        N  0.37060680  0.44978370  0.01452787    -0.37300
N188        N  0.28508461  0.56535548  0.26837373    -0.37300
C189        C  0.18040800  0.51318796  0.36103853    -0.03900
C190        C  0.14734032  0.03390882  0.34546713    -0.01100
C191        C  0.11850569  0.02655707  0.35430136     0.03900
C192        C  0.12374742  0.49956268  0.38894694    -0.03900
C193        C  0.15542611  0.47804828  0.40402551    -0.01100
C194        C  0.18368711  0.48480819  0.39018614     0.03900
C195        C  0.14366114  0.06682315  0.32873706     0.38600
C196        C  0.15891569  0.45047336  0.43732660     0.38600
C197        C  0.21571809  0.46348362  0.40956183     0.37000
C198        C  0.08614487  0.04973212  0.33930539     0.37000
N199        N  0.24023245  0.44497275  0.42624675    -0.37800
N200        N  0.06037487  0.06802683  0.32681388    -0.37800
N201        N  0.16187416  0.42853718  0.46400601    -0.37300
N202        N  0.13906827  0.09370352  0.31650593    -0.37300
C203        C  0.32766728  0.46861130  0.14428671    -0.03900
C204        C  0.35927390  0.44419773  0.15165143    -0.01100
C205        C  0.38812186  0.45081434  0.13988828     0.03900
C206        C  0.38601901  0.48183308  0.12044380    -0.03900
C207        C  0.35345687  0.00743804  0.10716647    -0.01100
C208        C  0.32451921  0.00128773  0.11987730     0.03900
C209        C  0.36224266  0.41119897  0.16732208     0.38600
C210        C  0.35074510  0.03810449  0.08227733     0.38600
C211        C  0.29298276  0.02626944  0.10767084     0.37000
C212        C  0.42008779  0.42528016  0.14665146     0.37000
N213        N  0.26888319  0.04747659  0.09660498    -0.37800
N214        N  0.44552571  0.40489541  0.15254609    -0.37800
N215        N  0.34839525  0.06251326  0.06216627    -0.37300
N216        N  0.36562677  0.38451618  0.17928985    -0.37300
C217        C  0.14210310  0.48317607  0.09285386    -0.03900
C218        C  0.15828820  0.00282148  0.07319500    -0.01100
C219        C  0.19246457  0.99531476  0.08369344     0.03900
C220        C  0.21042137  0.47092932  0.11905478    -0.03900
C221        C  0.19216113  0.45654961  0.14735466    -0.01100
C222        C  0.15810679  0.46293972  0.13492202     0.03900
C223        C  0.14216568  0.02753182  0.03477643     0.38600
C224        C  0.20876722  0.43371926  0.18768927     0.38600
C225        C  0.13992704  0.44839159  0.16581264     0.37000
C226        C  0.21021224  0.01139824  0.05457531     0.37000
N227        N  0.12481547  0.44543421  0.69402695    -0.37800
N228        N  0.22320754  0.02525043  0.03107586    -0.37800
N229        N  0.22169515  0.41530425  0.21980341    -0.37300
N230        N  0.12972848  0.04755865  0.00449562    -0.37300
O231        O  0.09889065  0.46395110  0.58099455    -0.73900
O232        O  0.09107550  0.01235758  0.54989582    -0.52800
C233        C  0.10763860  0.98701228  0.57685895     0.79800
O234        O  0.01516836  0.41179131  0.89427723    -0.58500
O235        O  0.47259308  0.41410235  0.94131986    -0.51500
C236        C  0.49250538  0.40168619  0.90754796     0.71800
O237        O  0.08061121  0.47544899  0.89369350    -0.73100
O238        O  0.08124277  0.02008220  0.94467741    -0.53600
C239        C  0.09228893  0.00004265  0.90992408     0.77800
O240        O  0.03283389  0.40032481  0.59021206    -0.58200
O241        O  0.47903276  0.40860322  0.55030793    -0.51300
C242        C  0.50449850  0.39243813  0.57858922     0.74400
Zr243      Zr  0.04891773  0.44841488  0.56991125     2.54700
O244        O  0.09709803  0.39889151  0.57325968    -0.78800
O245        O  0.05338924  0.45147582  0.65961657    -0.92200
Zr246      Zr  0.03679356  0.45547596  0.92010254     2.64700
O247        O  0.08705298  0.40803433  0.92413569    -0.97100
O248        O  0.03211673  0.45693447  0.82991967    -0.79200
O249        O  0.06069407  0.46953586  0.99405823    -0.82600
O250        O  0.02388713  0.43345583  0.99369649    -2.17300
O251        O  0.42464161  0.00802895  0.60717991    -0.65900
O252        O  0.42321589  0.46727838  0.56028904    -0.50500
C253        C  0.41279094  0.48763412  0.59507320     0.72800
O254        O  0.47362027  0.08492621  0.91075099    -0.58900
O255        O  0.02474504  0.07849134  0.95363047    -0.50800
C256        C  0.99906334  0.09522630  0.92642761     0.74600
O257        O  0.40903244  0.02019657  0.90855716    -0.70300
O258        O  0.41561884  0.47152759  0.94905888    -0.48900
C259        C  0.39860308  0.49644681  0.92167076     0.76000
O260        O  0.48705530  0.07449724  0.60429442    -0.65600
O261        O  0.03153784  0.07238670  0.55720820    -0.52800
C262        C  0.01057533  0.08562355  0.58957156     0.74400
Zr263      Zr  0.46840362  0.02824241  0.58089099     2.77500
O264        O  0.41990640  0.07717920  0.58166936    -0.96300
O265        O  0.47644929  0.02323968  0.67082107    -0.77200
Zr266      Zr  0.45860176  0.03580385  0.92583117     2.70100
O267        O  0.40975213  0.08465634  0.91824452    -0.78400
O268        O  0.46086527  0.03450070  0.83619879    -0.97500
Zr269      Zr  0.03955403  0.02751819  0.49964817     2.21500
Zr270      Zr  0.46674483  0.45745173  0.99967036     2.11100
O271        O  0.44411062  0.01435954  0.50699073    -2.46200
O272        O  0.48046356  0.05084084  0.50716721    -0.78200
O273        O  0.48774521  0.47221764  0.57433654    -0.70400
O274        O  0.01578759  0.01506902  0.92594200    -2.31300
O275        O  0.02620804  0.00707708  0.57474407    -2.27600
O276        O  0.47870255  0.47860916  0.92430156    -0.72100
H277        H  0.03066437  0.40989994  0.99167900     0.79800
H278        H  0.02214506  0.02525986  0.89822972     0.80900
H279        H  0.42043356  0.02130077  0.50899287     0.83200
H280        H  0.03687957  0.01382877  0.60305566     0.80800
H281        H  0.04470154  0.43436432  0.82058416     0.43800
H282        H  0.46279587  0.01176845  0.82773093     0.42800
H283        H  0.39678982  0.08284658  0.94648287     0.42500
H284        H  0.40480615  0.07451015  0.55425873     0.40400
H285        H  0.50056846  0.01753129  0.67791059     0.43500
H286        H  0.06636121  0.42888331  0.67111478     0.38300
H287        H  0.09468035  0.38765165  0.54226329     0.44400
H288        H  0.08606987  0.39571189  0.95460297     0.40800
H289        H  0.40928076  0.07480934  0.61225802     0.45800
H290        H  0.03081661  0.45483344  0.66985390     0.44500
H291        H  0.08385138  0.39422258  0.89662398     0.44600
H292        H  0.43833984  0.04786769  0.82341459     0.45000
N293        N  0.02453556  0.23281302  0.65868697    -0.02100
C294        C  0.03539984  0.25351963  0.63171656     0.00500
C295        C  0.05502219  0.23651100  0.59552285    -0.22400
C296        C  0.05608815  0.20466665  0.59949655    -0.22600
C297        C  0.03719911  0.20277223  0.63810190     0.00400
H298        H  0.06497885  0.24687047  0.56633772     0.14200
H299        H  0.06716678  0.18544548  0.57420984     0.14200
N300        N  0.97717638  0.25357513  0.85407687    -0.02100
C301        C  0.96362943  0.28380232  0.87331357     0.00500
C302        C  0.94380768  0.28229156  0.91088699    -0.22400
C303        C  0.94527918  0.25026747  0.91545369    -0.22600
C304        C  0.96591131  0.23305202  0.88045254     0.00400
H305        H  0.93157145  0.30193303  0.93482989     0.14200
H306        H  0.93462652  0.24007695  0.94395651     0.14200
N307        N  0.26672109  0.47270737  0.65028417    -0.02100
C308        C  0.29736969  0.46040099  0.63235695     0.00500
C309        C  0.29612526  0.44260892  0.59053310    -0.22400
C310        C  0.26400968  0.44415396  0.58168041    -0.22600
C311        C  0.24653437  0.46275528  0.61839544     0.00400
H312        H  0.31606027  0.43177779  0.56677576     0.14200
H313        H  0.25400770  0.43452257  0.55005821     0.14200
N314        N  0.23843319  0.51351993  0.84921094    -0.02100
C315        C  0.25837447  0.52576593  0.87793813     0.00500
C316        C  0.24074780  0.54549455  0.91364457    -0.22400
C317        C  0.20894086  0.54545607  0.90711004    -0.22600
C318        C  0.20795067  0.52568426  0.86761985     0.00400
H319        H  0.25059877  0.55669121  0.94356645     0.14200
H320        H  0.18910429  0.55681899  0.93078713     0.14200
C321        C  0.25936110  0.48330930  0.70037061    -0.03900
C322        C  0.23682552  0.51454596  0.70980268    -0.01100
C323        C  0.23112592  0.52449984  0.75892187     0.03900
C324        C  0.24500090  0.50249293  0.79929773    -0.03900
C325        C  0.26717592  0.47116964  0.79010954    -0.01100
C326        C  0.27350039  0.46135902  0.74096860     0.03900
C327        C  0.21831278  0.53663676  0.66998964     0.38600
C328        C  0.28488584  0.44934400  0.83077212     0.38600
C329        C  0.29166243  0.42741494  0.73217716     0.37000
C330        C  0.21480457  0.55882228  0.76811896     0.37000
N331        N  0.30495463  0.39986283  0.72624567    -0.37800
N332        N  0.20347410  0.58655499  0.77480666    -0.37800
N333        N  0.30006106  0.43136003  0.86211233    -0.37300
N334        N  0.20210450  0.55545919  0.64040022    -0.37300
C335        C  0.01256067  0.23859061  0.70797724    -0.03900
C336        C  0.47816831  0.25804595  0.71161362    -0.01100
C337        C  0.46732524  0.26117816  0.76012122     0.03900
C338        C  0.98947054  0.24760621  0.80511160    -0.03900
C339        C  0.02219599  0.22785847  0.79802810    -0.01100
C340        C  0.03385325  0.22407227  0.74991440     0.03900
C341        C  0.45577478  0.27542530  0.67089747     0.38600
C342        C  0.04385123  0.21038931  0.83946019     0.38600
C343        C  0.06868372  0.20771376  0.74432005     0.37000
C344        C  0.43236592  0.27493565  0.76725162     0.37000
N345        N  0.09682406  0.19550456  0.74147695    -0.37800
N346        N  0.40429219  0.28466981  0.77237317    -0.37800
N347        N  0.06198538  0.19546225  0.87114637    -0.37300
N348        N  0.43740012  0.29043473  0.63953651    -0.37400
C349        C  0.98077121  0.19664613  0.88433816    -0.03900
C350        C  0.46995659  0.17621171  0.84575623    -0.01100
C351        C  0.47708383  0.14248581  0.85746288     0.03900
C352        C  0.99706848  0.12876152  0.90815643    -0.03900
C353        C  0.01052864  0.14871640  0.93787283    -0.01100
C354        C  0.00216920  0.18236100  0.92607137     0.03900
C355        C  0.45019974  0.19051457  0.80087427     0.38600
C356        C  0.03230237  0.13543904  0.98158329     0.38600
C357        C  0.01482279  0.20271554  0.95816529     0.37000
C358        C  0.46461770  0.12272556  0.82386880     0.37000
N359        N  0.02513183  0.21886722  0.98356134    -0.37800
N360        N  0.45464740  0.10708980  0.79685242    -0.37800
N361        N  0.05011502  0.12529359  0.01612098    -0.37300
N362        N  0.43473843  0.20118078  0.76444898    -0.37300
C363        C  0.98797936  0.37207855  0.88250943    -0.03900
C364        C  0.01284773  0.34151638  0.89194112    -0.01100
C365        C  0.00592538  0.31220733  0.88372040     0.03900
C366        C  0.97400389  0.31314880  0.86571356    -0.03900
C367        C  0.45169598  0.34346081  0.85164818    -0.01100
C368        C  0.45842580  0.37281330  0.86095151     0.03900
C369        C  0.04444526  0.34010898  0.91583221     0.38600
C370        C  0.41911087  0.34550317  0.83138655     0.38600
C371        C  0.43323377  0.40423603  0.84874430     0.37000
C372        C  0.03055636  0.28170904  0.90112284     0.37000
N373        N  0.41311464  0.42926390  0.83901861    -0.37800
N374        N  0.05120438  0.25850593  0.91681336    -0.37800
N375        N  0.39269075  0.34832310  0.81558820    -0.37300
N376        N  0.06957534  0.33866320  0.93536623    -0.37300
C377        C  0.01383654  0.11518982  0.61450706    -0.03900
C378        C  0.04368125  0.11336064  0.64083265    -0.01100
C379        C  0.05024474  0.14225572  0.65400350     0.03900
C380        C  0.02620420  0.17353001  0.64351733    -0.03900
C381        C  0.49392689  0.17562866  0.61857941    -0.01100
C382        C  0.48745039  0.14608354  0.60908710     0.03900
C383        C  0.06830641  0.08153240  0.65254383     0.38600
C384        C  0.46917693  0.20619929  0.60179539     0.38600
C385        C  0.45485381  0.14726002  0.58987851     0.37000
C386        C  0.08320499  0.13939036  0.67349643     0.37000
N387        N  0.43236097  0.14832545  0.06501359    -0.37800
N388        N  0.11005691  0.13578227  0.68802243    -0.37800
N389        N  0.44866186  0.22966296  0.58659396    -0.37300
N390        N  0.08780114  0.05610774  0.66204169    -0.37300
C391        C  0.00974939  0.35689056  0.59923540    -0.03900
C392        C  0.49304725  0.33876394  0.56883942    -0.01100
C393        C  0.49970733  0.30564219  0.58276683     0.03900
C394        C  0.02102298  0.29008549  0.62772119    -0.03900
C395        C  0.03300867  0.31013634  0.65883851    -0.01100
C396        C  0.02722579  0.34340183  0.64500882     0.03900
C397        C  0.47392546  0.35071918  0.52249047     0.38600
C398        C  0.05219836  0.29627758  0.70437725     0.38600
C399        C  0.03898404  0.36360019  0.67864099     0.37000
C400        C  0.48729383  0.28506109  0.55062727     0.37000
N401        N  0.04833992  0.37934175  0.70625992    -0.37800
N402        N  0.47740025  0.26894549  0.52449867    -0.37800
N403        N  0.06737198  0.28550751  0.74098029    -0.37300
N404        N  0.45830577  0.35936425  0.48557920    -0.37300
C405        C  0.29514141  0.51293173  0.88203383    -0.03900
C406        C  0.31405967  0.52377857  0.84961710    -0.01100
C407        C  0.34849463  0.51593270  0.86006432     0.03900
C408        C  0.36406383  0.49857541  0.90448143    -0.03900
C409        C  0.34518469  0.48560142  0.93480428    -0.01100
C410        C  0.31115077  0.49263013  0.92333446     0.03900
C411        C  0.29810131  0.54453929  0.80690154     0.38600
C412        C  0.35977264  0.46590710  0.97924199     0.38600
C413        C  0.29230206  0.47937882  0.95511800     0.37000
C414        C  0.36772664  0.52546427  0.82439903     0.37000
N415        N  0.27763190  0.46843982  0.98042437    -0.37800
N416        N  0.38377363  0.03156585  0.79330959    -0.37800
N417        N  0.36674288  0.45550295  0.51313119    -0.37300
N418        N  0.28613346  0.56133470  0.77264997    -0.37300
C419        C  0.17877436  0.51456768  0.85749282    -0.03900
C420        C  0.14609879  0.04328651  0.85565612    -0.01100
C421        C  0.11754806  0.03568530  0.86538901     0.03900
C422        C  0.12040519  0.50184580  0.88024857    -0.03900
C423        C  0.15124787  0.47669467  0.88558586    -0.01100
C424        C  0.18032401  0.48295805  0.87420845     0.03900
C425        C  0.14242859  0.07685432  0.84227672     0.38600
C426        C  0.15347995  0.44534254  0.90775199     0.38600
C427        C  0.21174060  0.45751758  0.88529065     0.37000
C428        C  0.08516472  0.06044832  0.85719990     0.37000
N429        N  0.23578792  0.43599559  0.89535578    -0.37800
N430        N  0.05941443  0.08018826  0.85012903    -0.37800
N431        N  0.15521809  0.42043807  0.92566671    -0.37300
N432        N  0.13844079  0.10402182  0.83257175    -0.37300
C433        C  0.32681038  0.47076199  0.64411769    -0.03900
C434        C  0.35830648  0.44636781  0.65222965    -0.01100
C435        C  0.38718541  0.45324055  0.64207963     0.03900
C436        C  0.38498633  0.48412894  0.62243288    -0.03900
C437        C  0.35457668  0.00647832  0.61944206    -0.01100
C438        C  0.32567527  0.00005068  0.63176390     0.03900
C439        C  0.36124405  0.41306001  0.66585408     0.38600
C440        C  0.35190848  0.03875709  0.60054453     0.38600
C441        C  0.29425997  0.02592284  0.62318371     0.37000
C442        C  0.41933740  0.42824539  0.65084243     0.37000
N443        N  0.27031796  0.04787849  0.61475326    -0.37800
N444        N  0.44497791  0.40843339  0.65855653    -0.37800
N445        N  0.34912679  0.06464141  0.58536928    -0.37300
N446        N  0.36485984  0.38603738  0.67598122    -0.37300
C447        C  0.14170449  0.48767843  0.59193933    -0.03900
C448        C  0.16185105  0.99727056  0.56718589    -0.01100
C449        C  0.19559074  0.99038460  0.58104613     0.03900
C450        C  0.20995694  0.47498492  0.61505098    -0.03900
C451        C  0.19210429  0.46087080  0.64456174    -0.01100
C452        C  0.15791901  0.46794428  0.63396505     0.03900
C453        C  0.14838659  0.01693790  0.52235681     0.38600
C454        C  0.20901471  0.43754599  0.68407116     0.38600
C455        C  0.13944458  0.45532453  0.66713621     0.37000
C456        C  0.21534574  0.00421988  0.55198518     0.37000
N457        N  0.12580951  0.43657596  0.19082037    -0.37800
N458        N  0.23105341  0.01577312  0.52977058    -0.37800
N459        N  0.22186424  0.41862988  0.71559818    -0.37300
N460        N  0.13822943  0.03298971  0.48680184    -0.37300
O461        O  0.09692729  0.96301130  0.08723802    -0.73900
O462        O  0.09028328  0.51169455  0.04877935    -0.52800
C463        C  0.10758909  0.48582831  0.07417970     0.79800
O464        O  0.01429088  0.91104690  0.39813280    -0.58500
O465        O  0.47294600  0.91321575  0.44251404    -0.51500
C466        C  0.49354633  0.90066321  0.40962347     0.71800
O467        O  0.08052068  0.97230204  0.39464027    -0.73100
O468        O  0.08279428  0.51867390  0.44555118    -0.53600
C469        C  0.09459727  0.49729057  0.41288683     0.77800
O470        O  0.03099774  0.90039040  0.08670956    -0.58200
O471        O  0.48146254  0.90802157  0.04774217    -0.51300
C472        C  0.50604916  0.89216952  0.07754961     0.74400
Zr473      Zr  0.04715865  0.94838495  0.06868811     2.54700
O474        O  0.09607886  0.89960874  0.07159609    -0.78800
O475        O  0.04779404  0.95024149  0.15851960    -0.92200
Zr476      Zr  0.03512270  0.95564942  0.42142623     2.64700
O477        O  0.08108717  0.90504262  0.41475174    -0.97100
O478        O  0.02347382  0.96148818  0.33203381    -0.79200
O479        O  0.06026038  0.96933518  0.49523942    -0.82600
O480        O  0.02298788  0.93432929  0.49591609    -2.17300
O481        O  0.42493489  0.50954811  0.10484082    -0.65900
O482        O  0.42503735  0.96485348  0.05578103    -0.50500
C483        C  0.41344531  0.98593505  0.08900440     0.72800
O484        O  0.47390772  0.58516920  0.41211796    -0.58900
O485        O  0.02502097  0.57750759  0.44999988    -0.50800
C486        C  0.99961772  0.59376025  0.42191282     0.74600
O487        O  0.40760466  0.52359883  0.41044636    -0.70300
O488        O  0.41549920  0.97066960  0.45021807    -0.48900
C489        C  0.39824054  0.99577152  0.42333546     0.76000
O490        O  0.48921384  0.57410686  0.10158343    -0.65600
O491        O  0.03294403  0.57187911  0.05419357    -0.52800
C492        C  0.01223569  0.58487613  0.08669223     0.74400
Zr493      Zr  0.46889372  0.52937511  0.07737506     2.77500
O494        O  0.42123598  0.57884579  0.08088530    -0.96300
O495        O  0.47799050  0.52360374  0.16713171    -0.77200
Zr496      Zr  0.45794988  0.53675208  0.42852566     2.70100
O497        O  0.40895378  0.58548981  0.42273563    -0.78400
O498        O  0.45806398  0.53447798  0.33859318    -0.97500
Zr499      Zr  0.03882991  0.52761003  0.99777594     2.21500
Zr500      Zr  0.46662176  0.95649128  0.50122550     2.11100
O501        O  0.44451285  0.51555902  0.00356895    -2.46200
O502        O  0.48129148  0.55145218  0.00309590    -0.78200
O503        O  0.48912729  0.97201745  0.07201019    -0.70400
O504        O  0.01651340  0.51406170  0.42585356    -2.31300
O505        O  0.02678864  0.50625506  0.07297365    -2.27600
O506        O  0.47847315  0.97846452  0.42660413    -0.72100
H507        H  0.02953090  0.91076617  0.49443723     0.79800
H508        H  0.02288630  0.52381153  0.39764048     0.80900
H509        H  0.42083412  0.52272200  0.00568522     0.83200
H510        H  0.03762840  0.51289559  0.10125062     0.80800
H511        H  0.02823577  0.98148139  0.32248923     0.43800
H512        H  0.47858307  0.53838026  0.33034616     0.42800
H513        H  0.41084378  0.59756238  0.45306100     0.42500
H514        H  0.40530383  0.57664276  0.05437430     0.40400
H515        H  0.49969314  0.52641206  0.17455585     0.43500
H516        H  0.06540163  0.92977470  0.17002612     0.38300
H517        H  0.10746596  0.90172313  0.04166520     0.44400
H518        H  0.08957858  0.90676029  0.38200139     0.40800
H519        H  0.41137336  0.57647979  0.11221250     0.45800
H520        H  0.02699035  0.94691513  0.16673296     0.44500
H521        H  0.09839442  0.90691120  0.43913294     0.44600
H522        H  0.46212076  0.51114570  0.33132877     0.45000
N523        N  0.02278936  0.73397315  0.15302099    -0.02100
C524        C  0.03496164  0.75480768  0.12897979     0.00500
C525        C  0.05601796  0.73839492  0.09395818    -0.22400
C526        C  0.05671560  0.70662813  0.09560246    -0.22600
C527        C  0.03616588  0.70430677  0.13169617     0.00400
H528        H  0.06721521  0.74915814  0.06690241     0.14200
H529        H  0.06918246  0.68763900  0.07081556     0.14200
N530        N  0.97807759  0.75292376  0.35077253    -0.02100
C531        C  0.96376707  0.78248608  0.37184552     0.00500
C532        C  0.94428507  0.77937339  0.40900521    -0.22400
C533        C  0.94679976  0.74710280  0.41186571    -0.22600
C534        C  0.96773879  0.73129635  0.37635097     0.00400
H535        H  0.93164311  0.79816248  0.43395827     0.14200
H536        H  0.93664887  0.73579130  0.43963677     0.14200
N537        N  0.26666752  0.97134797  0.15112129    -0.02100
C538        C  0.29681586  0.95894900  0.13140811     0.00500
C539        C  0.29487971  0.93928145  0.09213374    -0.22400
C540        C  0.26294202  0.93956653  0.08685995    -0.22600
C541        C  0.24618885  0.95927578  0.12318220     0.00400
H542        H  0.31415448  0.92791097  0.06754706     0.14200
H543        H  0.25243968  0.92853884  0.05744453     0.14200
N544        N  0.23783589  0.01231603  0.35015105    -0.02100
C545        C  0.25775270  0.02364071  0.38060635     0.00500
C546        C  0.24022441  0.04148868  0.41801049    -0.22400
C547        C  0.20857541  0.04109862  0.41096104    -0.22600
C548        C  0.20750056  0.02311110  0.36935254     0.00400
H549        H  0.25010739  0.05152926  0.44928739     0.14200
H550        H  0.18899370  0.05078624  0.43572310     0.14200
C551        C  0.26045080  0.98250402  0.20124934    -0.03900
C552        C  0.23857447  0.01407601  0.21053162    -0.01100
C553        C  0.23168855  0.02374462  0.25961326     0.03900
C554        C  0.24481605  0.00154887  0.30008851    -0.03900
C555        C  0.26653449  0.96999709  0.29091754    -0.01100
C556        C  0.27344697  0.96026426  0.24184153     0.03900
C557        C  0.22191467  0.03678145  0.17031896     0.38600
C558        C  0.28267720  0.94752669  0.33164190     0.38600
C559        C  0.29112062  0.92621201  0.23292202     0.37000
C560        C  0.21358212  0.05768680  0.26864278     0.37000
N561        N  0.30405919  0.89863036  0.22671451    -0.37800
N562        N  0.20029520  0.08522371  0.27471935    -0.37800
N563        N  0.29673178  0.92888074  0.36289377    -0.37300
N564        N  0.20719271  0.05620835  0.14043050    -0.37300
C565        C  0.01123289  0.73889763  0.20265771    -0.03900
C566        C  0.47920396  0.75730447  0.20771656    -0.01100
C567        C  0.46894967  0.76014971  0.25659110     0.03900
C568        C  0.98980526  0.74824170  0.30109636    -0.03900
C569        C  0.02256328  0.72897632  0.29267010    -0.01100
C570        C  0.03347379  0.72560792  0.24404095     0.03900
C571        C  0.45607321  0.77510077  0.16806362     0.38600
C572        C  0.04519140  0.71180268  0.33328851     0.38600
C573        C  0.06842863  0.71156237  0.23697249     0.37000
C574        C  0.43415904  0.77427374  0.26474226     0.37000
N575        N  0.09651481  0.70162891  0.23198463    -0.37800
N576        N  0.40619986  0.78434962  0.27065160    -0.37800
N577        N  0.06411811  0.69704449  0.36424635    -0.37300
N578        N  0.43651013  0.79030933  0.13819467    -0.37400
C579        C  0.98309300  0.69496322  0.37868557    -0.03900
C580        C  0.46934603  0.67570994  0.34635655    -0.01100
C581        C  0.47753321  0.64192038  0.35822505     0.03900
C582        C  0.99780269  0.62719482  0.40290266    -0.03900
C583        C  0.01263274  0.64664213  0.43157724    -0.01100
C584        C  0.00485214  0.68023593  0.41985133     0.03900
C585        C  0.44529341  0.69054542  0.30582619     0.38600
C586        C  0.03469567  0.63318357  0.47500738     0.38600
C587        C  0.01737911  0.70028347  0.45286581     0.37000
C588        C  0.46630853  0.62146715  0.32430699     0.37000
N589        N  0.02729457  0.71593974  0.47983365    -0.37800
N590        N  0.45767654  0.60524235  0.29664984    -0.37800
N591        N  0.05260634  0.62300547  0.50944628    -0.37300
N592        N  0.42571618  0.70215337  0.27380192    -0.37300
C593        C  0.98668637  0.87150367  0.38771232    -0.03900
C594        C  0.01208150  0.84098067  0.39413250    -0.01100
C595        C  0.00529046  0.81166981  0.38500528     0.03900
C596        C  0.97329528  0.81257022  0.36737240    -0.03900
C597        C  0.45361277  0.84268351  0.35007909    -0.01100
C598        C  0.45970349  0.87201272  0.36186734     0.03900
C599        C  0.04447147  0.83944470  0.41500652     0.38600
C600        C  0.42102479  0.84472224  0.32979921     0.38600
C601        C  0.43390574  0.90336396  0.35177507     0.37000
C602        C  0.02999220  0.78109392  0.40194880     0.37000
N603        N  0.41325203  0.92827342  0.34358687    -0.37800
N604        N  0.05048223  0.75777202  0.41762242    -0.37800
N605        N  0.39457435  0.84770684  0.31395893    -0.37300
N606        N  0.07035042  0.83792467  0.43171483    -0.37300
C607        C  0.01556581  0.61467260  0.11064852    -0.03900
C608        C  0.04630880  0.61404428  0.13288445    -0.01100
C609        C  0.05175814  0.64351152  0.14574449     0.03900
C610        C  0.02654555  0.67419541  0.13652211    -0.03900
C611        C  0.49492626  0.67384503  0.12032686    -0.01100
C612        C  0.48927304  0.64389389  0.11185295     0.03900
C613        C  0.07291634  0.58301160  0.14089526     0.38600
C614        C  0.46798405  0.70390833  0.10829755     0.38600
C615        C  0.45620100  0.64416544  0.09695674     0.37000
C616        C  0.08442914  0.64210836  0.16482652     0.37000
N617        N  0.43116518  0.64887974  0.55923919    -0.37800
N618        N  0.11085832  0.64016418  0.17944212    -0.37800
N619        N  0.44539274  0.72661172  0.09659861    -0.37300
N620        N  0.09422553  0.55835633  0.14732257    -0.37300
C621        C  0.00767270  0.85760135  0.09563278    -0.03900
C622        C  0.48953283  0.84080107  0.07113922    -0.01100
C623        C  0.49619744  0.80740380  0.08308427     0.03900
C624        C  0.01984264  0.79111964  0.12487150    -0.03900
C625        C  0.03132759  0.81155878  0.15584528    -0.01100
C626        C  0.02454899  0.84487563  0.14200306     0.03900
C627        C  0.46534224  0.85529443  0.03043816     0.38600
C628        C  0.05131728  0.79808095  0.20091467     0.38600
C629        C  0.03468644  0.86592038  0.17611959     0.37000
C630        C  0.48079784  0.78825813  0.05262350     0.37000
N631        N  0.04263167  0.88238554  0.20413437    -0.37800
N632        N  0.46853415  0.77296922  0.02854125    -0.37800
N633        N  0.06731974  0.78777334  0.23704810    -0.37300
N634        N  0.44571275  0.86648302  0.99828194    -0.37300
C635        C  0.29456340  0.01167311  0.38386214    -0.03900
C636        C  0.31245998  0.02566457  0.35414402    -0.01100
C637        C  0.34692101  0.01818588  0.36404920     0.03900
C638        C  0.36365898  0.99788603  0.40557370    -0.03900
C639        C  0.34571468  0.98218851  0.43319747    -0.01100
C640        C  0.31154200  0.98933980  0.42258665     0.03900
C641        C  0.29520388  0.04966341  0.31558873     0.38600
C642        C  0.36145958  0.95946039  0.47421619     0.38600
C643        C  0.29354244  0.97458783  0.45358147     0.37000
C644        C  0.36490643  0.03132685  0.33077360     0.37000
N645        N  0.27985068  0.96247973  0.47883532    -0.37800
N646        N  0.38015967  0.54445316  0.29980263    -0.37800
N647        N  0.37057246  0.94658044  0.00888591    -0.37300
N648        N  0.28195773  0.06920718  0.28503588    -0.37300
C649        C  0.17903062  0.01102201  0.35903851    -0.03900
C650        C  0.14856799  0.53224975  0.34113010    -0.01100
C651        C  0.12033926  0.52576637  0.35571595     0.03900
C652        C  0.12086404  0.99733245  0.37964576    -0.03900
C653        C  0.15198868  0.97294252  0.38803795    -0.01100
C654        C  0.18101036  0.97983615  0.37837001     0.03900
C655        C  0.14422493  0.55932304  0.30681063     0.38600
C656        C  0.15440307  0.94181943  0.41116584     0.38600
C657        C  0.21245772  0.95647614  0.39616256     0.37000
C658        C  0.08755480  0.54702813  0.33845928     0.37000
N659        N  0.23658403  0.93702907  0.41220919    -0.37800
N660        N  0.06137917  0.56397332  0.32491958    -0.37800
N661        N  0.15664524  0.91690616  0.42954591    -0.37300
N662        N  0.13895902  0.58092694  0.27861197    -0.37300
C663        C  0.32625508  0.97011258  0.13885968    -0.03900
C664        C  0.35797159  0.94642461  0.14938406    -0.01100
C665        C  0.38688659  0.95313664  0.13835426     0.03900
C666        C  0.38461699  0.98284988  0.11424606    -0.03900
C667        C  0.35532475  0.50734904  0.11954948    -0.01100
C668        C  0.32627117  0.50071275  0.13056450     0.03900
C669        C  0.36122140  0.91380128  0.16719923     0.38600
C670        C  0.35293784  0.54005732  0.10323871     0.38600
C671        C  0.29484863  0.52640928  0.12113663     0.37000
C672        C  0.41913904  0.92898590  0.15062979     0.37000
N673        N  0.27075974  0.54806068  0.11201508    -0.37800
N674        N  0.44479616  0.90981410  0.16110451    -0.37800
N675        N  0.35052012  0.56635899  0.09055046    -0.37300
N676        N  0.36509208  0.88727778  0.18058773    -0.37300
C677        C  0.14061428  0.98585070  0.09872784    -0.03900
C678        C  0.16037800  0.49913736  0.06656863    -0.01100
C679        C  0.19416619  0.49283520  0.07951119     0.03900
C680        C  0.20948290  0.97185802  0.12094932    -0.03900
C681        C  0.19160084  0.95741653  0.14996589    -0.01100
C682        C  0.15721283  0.96479292  0.13955804     0.03900
C683        C  0.14541772  0.52110908  0.02444073     0.38600
C684        C  0.20870637  0.93378316  0.18907162     0.38600
C685        C  0.13905574  0.95111873  0.17181033     0.37000
C686        C  0.21253785  0.50852848  0.05087210     0.37000
N687        N  0.12040352  0.95053205  0.70314196    -0.37800
N688        N  0.22659631  0.52175962  0.02827363    -0.37800
N689        N  0.22186502  0.91478042  0.22036830    -0.37300
N690        N  0.13389600  0.53890782  0.99105908    -0.37300
O691        O  0.09693261  0.96326826  0.58691834    -0.73900
O692        O  0.08912445  0.51598332  0.55237551    -0.52800
C693        C  0.10756425  0.48945695  0.57449246     0.79800
O694        O  0.01471672  0.91360783  0.89201124    -0.58500
O695        O  0.47278678  0.91440353  0.93776419    -0.51500
C696        C  0.49302096  0.90184831  0.90440397     0.71800
O697        O  0.08117811  0.97686630  0.89671429    -0.73100
O698        O  0.08088182  0.51947075  0.93948283    -0.53600
C699        C  0.09186489  0.49872807  0.90565669     0.77800
O700        O  0.02874349  0.90189172  0.58930537    -0.58200
O701        O  0.48230521  0.90621983  0.55059477    -0.51300
C702        C  0.50833001  0.88957900  0.57717683     0.74400
Zr703      Zr  0.04651744  0.94904155  0.56981747     2.54700
O704        O  0.09439873  0.89936232  0.56976423    -0.78800
O705        O  0.04766072  0.94944151  0.65982787    -0.92200
Zr706      Zr  0.03659500  0.95703442  0.92043546     2.64700
O707        O  0.08353278  0.90692655  0.91664099    -0.97100
O708        O  0.02922938  0.96399768  0.83065528    -0.79200
O709        O  0.06084281  0.97015729  0.99542247    -0.82600
O710        O  0.02432563  0.93414024  0.99363277    -2.17300
O711        O  0.42416260  0.51079058  0.60667815    -0.65900
O712        O  0.42449303  0.96449172  0.56012076    -0.50500
C713        C  0.41346008  0.98478555  0.59463374     0.72800
O714        O  0.47432305  0.58465088  0.90860890    -0.58900
O715        O  0.02299590  0.57785357  0.94720956    -0.50800
C716        C  0.99734676  0.59440907  0.91957826     0.74600
O717        O  0.40863503  0.52052104  0.91072046    -0.70300
O718        O  0.41543842  0.97151064  0.94728252    -0.48900
C719        C  0.39863173  0.99644207  0.91986314     0.76000
O720        O  0.48604087  0.57536556  0.60062339    -0.65600
O721        O  0.03056612  0.57277073  0.55883280    -0.52800
C722        C  0.01012479  0.58480171  0.59222562     0.74400
Zr723      Zr  0.46695242  0.53030253  0.57651748     2.77500
O724        O  0.41647476  0.57739272  0.57204841    -0.96300
O725        O  0.47406974  0.52904329  0.66652928    -0.77200
Zr726      Zr  0.45774667  0.53671641  0.92915640     2.70100
O727        O  0.40875882  0.58500864  0.93303039    -0.78400
O728        O  0.45521452  0.53824796  0.83904016    -0.97500
Zr729      Zr  0.03900243  0.52824931  0.50132856     2.21500
Zr730      Zr  0.46686346  0.95745531  0.99675797     2.11100
O731        O  0.44320688  0.51644071  0.50244502    -2.46200
O732        O  0.48028412  0.55206020  0.50294394    -0.78200
O733        O  0.48980978  0.97006027  0.57660469    -0.70400
O734        O  0.01569716  0.51359749  0.92262209    -2.31300
O735        O  0.02749757  0.50624488  0.57631303    -2.27600
O736        O  0.47971130  0.97785131  0.92150502    -0.72100
H737        H  0.03123535  0.91060834  0.99115690     0.79800
H738        H  0.02184540  0.52327628  0.89417134     0.80900
H739        H  0.41947894  0.52408755  0.50427782     0.83200
H740        H  0.03808351  0.51295775  0.60470337     0.80800
H741        H  0.02408762  0.98775956  0.82426784     0.43800
H742        H  0.44902067  0.51896775  0.82933859     0.42800
H743        H  0.40802256  0.59794726  0.90241455     0.42500
H744        H  0.41800782  0.58960703  0.60236987     0.40400
H745        H  0.45210919  0.54214583  0.67739877     0.43500
H746        H  0.05190762  0.96984789  0.66888980     0.38300
H747        H  0.10540373  0.89766324  0.60335134     0.44400
H748        H  0.09485551  0.91012373  0.88722273     0.40800
H749        H  0.41925181  0.59130526  0.54467587     0.45800
H750        H  0.06826884  0.93165843  0.67074890     0.44500
H751        H  0.09861440  0.90776325  0.94529084     0.44600
H752        H  0.43546006  0.55734286  0.82925340     0.45000
N753        N  0.01850017  0.73539196  0.65121866    -0.02100
C754        C  0.03059985  0.75621760  0.62704092     0.00500
C755        C  0.05102780  0.73986943  0.59126008    -0.22400
C756        C  0.05161910  0.70808693  0.59300574    -0.22600
C757        C  0.03149235  0.70579496  0.62968426     0.00400
H758        H  0.06215530  0.75061238  0.56408570     0.14200
H759        H  0.06397267  0.68899090  0.56830826     0.14200
N760        N  0.97456259  0.75491919  0.84865092    -0.02100
C761        C  0.96278270  0.78492295  0.86963596     0.00500
C762        C  0.94650436  0.78251359  0.91117764    -0.22400
C763        C  0.94858457  0.75032575  0.91657723    -0.22600
C764        C  0.96607540  0.73365324  0.87817233     0.00400
H765        H  0.93659200  0.80162879  0.93716993     0.14200
H766        H  0.94045562  0.73966036  0.94747604     0.14200
N767        N  0.26713987  0.96965374  0.65616289    -0.02100
C768        C  0.29749375  0.95740081  0.63709612     0.00500
C769        C  0.29624287  0.93699623  0.59853652    -0.22400
C770        C  0.26461590  0.93650611  0.59330311    -0.22600
C771        C  0.24715978  0.95677504  0.62858025     0.00400
H772        H  0.31581836  0.92541796  0.57453127     0.14200
H773        H  0.25462149  0.92496758  0.56398463     0.14200
N774        N  0.23754374  0.01727048  0.85177365    -0.02100
C775        C  0.25805449  0.03005654  0.87815696     0.00500
C776        C  0.24115491  0.05108890  0.91310029    -0.22400
C777        C  0.20926339  0.05120556  0.90876876    -0.22600
C778        C  0.20743424  0.03032157  0.87117723     0.00400
H779        H  0.25163544  0.06283990  0.94154809     0.14200
H780        H  0.18997002  0.06340224  0.93287539     0.14200
C781        C  0.26019870  0.98225239  0.70534376    -0.03900
C782        C  0.23645649  0.01321576  0.71234086    -0.01100
C783        C  0.22904412  0.02436262  0.76058844     0.03900
C784        C  0.24374279  0.00417434  0.80271689    -0.03900
C785        C  0.26736923  0.97312610  0.79572770    -0.01100
C786        C  0.27463436  0.96191384  0.74744779     0.03900
C787        C  0.21896943  0.03394783  0.67048259     0.38600
C788        C  0.28535902  0.95271343  0.83762593     0.38600
C789        C  0.29444656  0.92806603  0.74129720     0.37000
C790        C  0.20919061  0.05820996  0.76676581     0.37000
N791        N  0.30931986  0.90059093  0.73789922    -0.37800
N792        N  0.19428061  0.08565123  0.77044591    -0.37800
N793        N  0.30092864  0.93558560  0.86959593    -0.37300
N794        N  0.20396128  0.05158961  0.63866229    -0.37300
C795        C  0.00689543  0.74017477  0.70072055    -0.03900
C796        C  0.48119741  0.75990507  0.70577563    -0.01100
C797        C  0.47011883  0.76370525  0.75426537     0.03900
C798        C  0.98556154  0.74904323  0.79887245    -0.03900
C799        C  0.01852020  0.73075806  0.79059881    -0.01100
C800        C  0.02932762  0.72740550  0.74204538     0.03900
C801        C  0.45945560  0.77846199  0.66524258     0.38600
C802        C  0.04144891  0.71457505  0.83147559     0.38600
C803        C  0.06429875  0.71377915  0.73503269     0.37000
C804        C  0.43554252  0.78074191  0.76101320     0.37000
N805        N  0.09242990  0.70414616  0.73040873    -0.37800
N806        N  0.40763393  0.79360276  0.76520853    -0.37800
N807        N  0.06060497  0.70056450  0.86267850    -0.37300
N808        N  0.44113778  0.79442308  0.63459285    -0.37400
C809        C  0.98000033  0.69687511  0.87951123    -0.03900
C810        C  0.47427674  0.67452734  0.83959582    -0.01100
C811        C  0.48126533  0.64089841  0.85261213     0.03900
C812        C  0.99521409  0.62824053  0.90076205    -0.03900
C813        C  0.01219970  0.64669197  0.92732735    -0.01100
C814        C  0.00355729  0.68076697  0.91817900     0.03900
C815        C  0.45678680  0.68792413  0.79269153     0.38600
C816        C  0.03845273  0.63128853  0.96494260     0.38600
C817        C  0.01768293  0.69956192  0.95122804     0.37000
C818        C  0.47241239  0.61974633  0.81725797     0.37000
N819        N  0.02902875  0.71397077  0.97847376    -0.37800
N820        N  0.46566288  0.60305543  0.78833708    -0.37800
N821        N  0.05981281  0.61919035  0.99435969    -0.37300
N822        N  0.44315533  0.69841239  0.75493137    -0.37300
C823        C  0.98749782  0.87351462  0.87836755    -0.03900
C824        C  0.01256524  0.84284758  0.88583783    -0.01100
C825        C  0.00518735  0.81351470  0.87959638     0.03900
C826        C  0.97336220  0.81427177  0.86124581    -0.03900
C827        C  0.45091322  0.84351894  0.85337249    -0.01100
C828        C  0.45750996  0.87303323  0.86134530     0.03900
C829        C  0.04542089  0.84136926  0.90417884     0.38600
C830        C  0.41697201  0.84516073  0.84248657     0.38600
C831        C  0.43131593  0.90421491  0.85197184     0.37000
C832        C  0.02901130  0.78337632  0.89989916     0.37000
N833        N  0.41031950  0.92892075  0.84399078    -0.37800
N834        N  0.04861447  0.76035638  0.91819981    -0.37800
N835        N  0.38955674  0.84725154  0.83519051    -0.37300
N836        N  0.07178144  0.83998050  0.91831655    -0.37300
C837        C  0.01215136  0.61507609  0.61599332    -0.03900
C838        C  0.04221647  0.61534202  0.63931944    -0.01100
C839        C  0.04759655  0.64532904  0.64835237     0.03900
C840        C  0.02234377  0.67558094  0.63621625    -0.03900
C841        C  0.49300385  0.67465884  0.61902987    -0.01100
C842        C  0.48701567  0.64548573  0.60623078     0.03900
C843        C  0.06795009  0.58455023  0.65307101     0.38600
C844        C  0.46731437  0.70560757  0.60682079     0.38600
C845        C  0.45589146  0.64718189  0.58037561     0.37000
C846        C  0.08042611  0.64465154  0.66522341     0.37000
N847        N  0.42964862  0.64485868  0.08534039    -0.37800
N848        N  0.10707506  0.64326414  0.67761144    -0.37800
N849        N  0.44576149  0.72936297  0.59580254    -0.37300
N850        N  0.08832315  0.56001369  0.66461027    -0.37300
C851        C  0.00402287  0.85982418  0.59898433    -0.03900
C852        C  0.49442074  0.83711673  0.56695178    -0.01100
C853        C  0.50139709  0.80359862  0.57818660     0.03900
C854        C  0.01630824  0.79266467  0.62472906    -0.03900
C855        C  0.02930827  0.81204507  0.65570585    -0.01100
C856        C  0.02300778  0.84551236  0.64320350     0.03900
C857        C  0.47086775  0.85159020  0.52554080     0.38600
C858        C  0.05063382  0.79729554  0.69906769     0.38600
C859        C  0.03578962  0.86515545  0.67654621     0.37000
C860        C  0.48579195  0.78466757  0.54760152     0.37000
N861        N  0.04588638  0.88066047  0.70362277    -0.37800
N862        N  0.47333544  0.76961154  0.52337219    -0.37800
N863        N  0.06772307  0.78614370  0.73392581    -0.37300
N864        N  0.45173830  0.86257215  0.49272195    -0.37300
C865        C  0.29472783  0.01613775  0.88225087    -0.03900
C866        C  0.31417453  0.02443720  0.84784558    -0.01100
C867        C  0.34863154  0.01621628  0.85835383     0.03900
C868        C  0.36394355  0.99912111  0.90306354    -0.03900
C869        C  0.34471510  0.98701118  0.93391811    -0.01100
C870        C  0.31030411  0.99645428  0.92434836     0.03900
C871        C  0.29884666  0.04203970  0.80218678     0.38600
C872        C  0.35954531  0.96488381  0.97592203     0.38600
C873        C  0.29080408  0.98564348  0.95819753     0.37000
C874        C  0.36828646  0.02478167  0.82238651     0.37000
N875        N  0.27565058  0.97656954  0.98518923    -0.37800
N876        N  0.38264145  0.53302437  0.79521525    -0.37800
N877        N  0.37351775  0.94106012  0.50672925    -0.37300
N878        N  0.28720219  0.05579165  0.76524637    -0.37300
C879        C  0.17792241  0.01938456  0.86383225    -0.03900
C880        C  0.14724118  0.53839964  0.84661083    -0.01100
C881        C  0.11828058  0.53204780  0.85798392     0.03900
C882        C  0.12028627  0.00443150  0.88433311    -0.03900
C883        C  0.15134400  0.97954495  0.88705046    -0.01100
C884        C  0.18016460  0.98715482  0.87841881     0.03900
C885        C  0.14419809  0.57050634  0.82684824     0.38600
C886        C  0.15400630  0.94661426  0.90271775     0.38600
C887        C  0.21186124  0.96293482  0.89270181     0.37000
C888        C  0.08621621  0.55722254  0.84885610     0.37000
N889        N  0.23631068  0.94291050  0.90620326    -0.37800
N890        N  0.06068620  0.57728865  0.84147112    -0.37800
N891        N  0.15622714  0.92024635  0.91478361    -0.37300
N892        N  0.14020533  0.59654008  0.81110522    -0.37300
C893        C  0.32720402  0.96798486  0.64606089    -0.03900
C894        C  0.35876631  0.94345640  0.65267199    -0.01100
C895        C  0.38744602  0.94989507  0.63999812     0.03900
C896        C  0.38524132  0.98090872  0.62061006    -0.03900
C897        C  0.35443808  0.50981314  0.62172678    -0.01100
C898        C  0.32531403  0.50304976  0.63140728     0.03900
C899        C  0.36184018  0.91031181  0.66765799     0.38600
C900        C  0.35245369  0.54281028  0.60758722     0.38600
C901        C  0.29380528  0.52853721  0.62089016     0.37000
C902        C  0.41919457  0.92385178  0.64448810     0.37000
N903        N  0.26942067  0.54968172  0.61097442    -0.37800
N904        N  0.44435566  0.90290608  0.64810514    -0.37800
N905        N  0.35058279  0.56932268  0.59696949    -0.37300
N906        N  0.36550517  0.88342262  0.67874502    -0.37300
C907        C  0.14211909  0.98428639  0.59576064    -0.03900
C908        C  0.15924697  0.50404718  0.56495190    -0.01100
C909        C  0.19313974  0.49763105  0.57658102     0.03900
C910        C  0.21044575  0.97028168  0.62302767    -0.03900
C911        C  0.19058135  0.95991317  0.65421875    -0.01100
C912        C  0.15645867  0.96725433  0.64108347     0.03900
C913        C  0.14325081  0.52707806  0.52435922     0.38600
C914        C  0.20528996  0.94119577  0.69932753     0.38600
C915        C  0.13619778  0.95789843  0.67516723     0.37000
C916        C  0.21060372  0.51476778  0.54879741     0.37000
N917        N  0.12484357  0.94029404  0.19814742    -0.37800
N918        N  0.22343153  0.52965404  0.52699971    -0.37800
N919        N  0.21668650  0.92641931  0.73560498    -0.37300
N920        N  0.13107204  0.54589683  0.49238699    -0.37300
O921        O  0.59854287  0.46338178  0.08371627    -0.73900
O922        O  0.59019147  0.01359704  0.04887537    -0.52800
C923        C  0.60714708  0.98842824  0.07585371     0.79800
O924        O  0.51622320  0.41149239  0.39743807    -0.58500
O925        O  0.97462518  0.41245735  0.44158820    -0.51500
C926        C  0.99501641  0.40003688  0.40827669     0.71800
O927        O  0.58297326  0.47419530  0.39905193    -0.73100
O928        O  0.58162132  0.01934198  0.44448220    -0.53600
C929        C  0.59258642  0.99919460  0.40978651     0.77800
O930        O  0.53219046  0.40166884  0.08975797    -0.58200
O931        O  0.98087253  0.40612093  0.04775226    -0.51300
C932        C  0.00669065  0.38948356  0.07491553     0.74400
Zr933      Zr  0.54801207  0.44966948  0.06902037     2.54700
O934        O  0.59614907  0.40019299  0.07663842    -0.78800
O935        O  0.54904028  0.45532706  0.15846792    -0.92200
Zr936      Zr  0.53679630  0.45618855  0.42221147     2.64700
O937        O  0.58430488  0.40617727  0.42357593    -0.97100
O938        O  0.52985968  0.46070882  0.33220288    -0.79200
O939        O  0.56036451  0.47050287  0.49641820    -0.82600
O940        O  0.52299933  0.43522899  0.49599564    -2.17300
O941        O  0.92465929  0.00751955  0.10550328    -0.65900
O942        O  0.92561709  0.46423179  0.06117537    -0.50500
C943        C  0.91548075  0.48449355  0.09610108     0.72800
O944        O  0.97515322  0.08494386  0.41267958    -0.58900
O945        O  0.52407717  0.07715867  0.45050262    -0.50800
C946        C  0.49793855  0.09415667  0.42461284     0.74600
O947        O  0.90813556  0.02260659  0.41056898    -0.70300
O948        O  0.91614209  0.47183143  0.44779772    -0.48900
C949        C  0.89934986  0.49716606  0.42073813     0.76000
O950        O  0.98630414  0.07320449  0.10518942    -0.65600
O951        O  0.53218795  0.07300154  0.05251601    -0.52800
C952        C  0.51187453  0.08566105  0.08567820     0.74400
Zr953      Zr  0.96755717  0.02803689  0.07844125     2.77500
O954        O  0.91653554  0.07446128  0.07603127    -0.96300
O955        O  0.97313211  0.02440522  0.16854594    -0.77200
Zr956      Zr  0.95781718  0.03721639  0.42961712     2.70100
O957        O  0.90955550  0.08653438  0.42867917    -0.78400
O958        O  0.95588139  0.03756346  0.33948461    -0.97500
Zr959      Zr  0.53950671  0.02810664  0.99682026     2.21500
Zr960      Zr  0.96724708  0.45618567  0.50009059     2.11100
O961        O  0.94388743  0.01505191  0.00351114    -2.46200
O962        O  0.98041503  0.05126741  0.00585869    -0.78200
O963        O  0.98909881  0.47075358  0.07359671    -0.70400
O964        O  0.51484265  0.01451665  0.42672641    -2.31300
O965        O  0.52629872  0.00772326  0.07192442    -2.27600
O966        O  0.97959498  0.47796783  0.42565394    -0.72100
H967        H  0.52987864  0.41164513  0.49458898     0.79800
H968        H  0.52081133  0.02452657  0.39836181     0.80900
H969        H  0.92016785  0.02225800  0.00520319     0.83200
H970        H  0.53672957  0.01463301  0.10028395     0.80800
H971        H  0.54859066  0.44241800  0.32084857     0.43800
H972        H  0.97758835  0.03854432  0.33093152     0.42800
H973        H  0.89990142  0.08560398  0.46072894     0.42500
H974        H  0.91790946  0.08599212  0.10711599     0.40400
H975        H  0.99615730  0.01005090  0.17666822     0.43500
H976        H  0.56342356  0.43361338  0.17174506     0.38300
H977        H  0.60236139  0.39532205  0.04219625     0.44400
H978        H  0.59224978  0.40501788  0.38982450     0.40800
H979        H  0.91893267  0.08920367  0.04954203     0.45800
H980        H  0.52660405  0.45678913  0.16729744     0.44500
H981        H  0.60148601  0.41098357  0.44502423     0.44600
H982        H  0.95654146  0.01520805  0.33073107     0.45000
N983        N  0.52511150  0.23358880  0.15266349    -0.02100
C984        C  0.53748912  0.25425868  0.12851864     0.00500
C985        C  0.55849652  0.23749198  0.09365050    -0.22400
C986        C  0.55901084  0.20572133  0.09571718    -0.22600
C987        C  0.53825611  0.20376476  0.13170946     0.00400
H988        H  0.56993818  0.24796580  0.06657653     0.14200
H989        H  0.57137672  0.18654975  0.07113182     0.14200
N990        N  0.48131310  0.25148182  0.35045189    -0.02100
C991        C  0.46848386  0.28109162  0.37206745     0.00500
C992        C  0.44906952  0.27867263  0.40971608    -0.22400
C993        C  0.44994011  0.24683994  0.41200778    -0.22600
C994        C  0.46994139  0.23052176  0.37576521     0.00400
H995        H  0.43722105  0.29765878  0.43490116     0.14200
H996        H  0.43943772  0.23602163  0.43994816     0.14200
N997        N  0.76826240  0.47110855  0.15353050    -0.02100
C998        C  0.79865593  0.45890462  0.13453616     0.00500
C999        C  0.79689774  0.44077736  0.09330700    -0.22400
C1000       C  0.76487350  0.44174237  0.08612739    -0.22600
C1001       C  0.74774508  0.46053542  0.12301279     0.00400
H1002       H  0.81643959  0.42995422  0.06889450     0.14200
H1003       H  0.75456194  0.43185988  0.05510121     0.14200
N1004       N  0.73891673  0.51678474  0.35023212    -0.02100
C1005       C  0.75865102  0.53046129  0.37661019     0.00500
C1006       C  0.74110762  0.55096260  0.41161386    -0.22400
C1007       C  0.70954202  0.54996875  0.40694020    -0.22600
C1008       C  0.70860201  0.52883395  0.36928292     0.00400
H1009       H  0.75099431  0.56302429  0.44033225     0.14200
H1010       H  0.69001074  0.56137807  0.43109536     0.14200
C1011       C  0.76118147  0.48309103  0.20309097    -0.03900
C1012       C  0.73866421  0.51463330  0.21083428    -0.01100
C1013       C  0.73203510  0.52559907  0.25937218     0.03900
C1014       C  0.74545597  0.50446555  0.30090838    -0.03900
C1015       C  0.76806713  0.47305034  0.29339075    -0.01100
C1016       C  0.77520079  0.46219945  0.24487599     0.03900
C1017       C  0.72163864  0.53619935  0.16959978     0.38600
C1018       C  0.78551824  0.45209845  0.33508911     0.38600
C1019       C  0.79488439  0.42838404  0.23829390     0.37000
C1020       C  0.71475313  0.55998774  0.26677824     0.37000
N1021       N  0.80982663  0.40091961  0.23498542    -0.37800
N1022       N  0.70234500  0.58776978  0.27204536    -0.37800
N1023       N  0.80081741  0.43451624  0.36677329    -0.37300
N1024       N  0.70685166  0.55459692  0.13848613    -0.37300
C1025       C  0.51379796  0.23844448  0.20235518    -0.03900
C1026       C  0.98104554  0.25742390  0.20805779    -0.01100
C1027       C  0.97035986  0.26109467  0.25667535     0.03900
C1028       C  0.49263078  0.24663860  0.30070411    -0.03900
C1029       C  0.52539437  0.22773031  0.29209976    -0.01100
C1030       C  0.53617299  0.22480648  0.24348142     0.03900
C1031       C  0.95853420  0.27515047  0.16769282     0.38600
C1032       C  0.54798836  0.21017483  0.33251077     0.38600
C1033       C  0.57107862  0.21057132  0.23625231     0.37000
C1034       C  0.93564042  0.27696223  0.26379610     0.37000
N1035       N  0.59916252  0.20037203  0.23133261    -0.37800
N1036       N  0.90759762  0.28861930  0.26814322    -0.37800
N1037       N  0.56680927  0.19514734  0.36338208    -0.37300
N1038       N  0.93942401  0.29038018  0.13730878    -0.37400
C1039       C  0.48447597  0.19411583  0.37850375    -0.03900
C1040       C  0.97520079  0.17448224  0.34513921    -0.01100
C1041       C  0.98202217  0.14094122  0.35787878     0.03900
C1042       C  0.49669131  0.12720402  0.40516364    -0.03900
C1043       C  0.51273332  0.14611134  0.43263336    -0.01100
C1044       C  0.50615667  0.17935675  0.41976562     0.03900
C1045       C  0.95682243  0.18811551  0.29894043     0.38600
C1046       C  0.53536715  0.13228216  0.47533107     0.38600
C1047       C  0.52024564  0.19901229  0.45127829     0.37000
C1048       C  0.97174751  0.12032005  0.32312456     0.37000
N1049       N  0.53157740  0.21433453  0.47684455    -0.37800
N1050       N  0.96354412  0.10412999  0.29490090    -0.37800
N1051       N  0.55393415  0.12166856  0.50892514    -0.37300
N1052       N  0.94235757  0.19854592  0.26170183    -0.37300
C1053       C  0.48947429  0.37117146  0.38582227    -0.03900
C1054       C  0.51535453  0.34092762  0.39295739    -0.01100
C1055       C  0.50957658  0.31113140  0.38301168     0.03900
C1056       C  0.47783103  0.31120221  0.36547895    -0.03900
C1057       C  0.95317881  0.34273314  0.35200459    -0.01100
C1058       C  0.95971986  0.37191932  0.36304549     0.03900
C1059       C  0.54697691  0.34012069  0.41603083     0.38600
C1060       C  0.91969138  0.34481240  0.33648555     0.38600
C1061       C  0.93342228  0.40324887  0.35612571     0.37000
C1062       C  0.53530552  0.28072099  0.39794523     0.37000
N1063       N  0.91235555  0.42814356  0.35063912    -0.37800
N1064       N  0.55668205  0.25745327  0.41158304    -0.37800
N1065       N  0.89255858  0.34756492  0.32487240    -0.37300
N1066       N  0.57215928  0.33920717  0.43481587    -0.37300
C1067       C  0.51565035  0.11515468  0.11007734    -0.03900
C1068       C  0.54661175  0.11400178  0.13208276    -0.01100
C1069       C  0.55232854  0.14308606  0.14647225     0.03900
C1070       C  0.52779678  0.17408886  0.13645526    -0.03900
C1071       C  0.99457475  0.17307439  0.12122812    -0.01100
C1072       C  0.98774558  0.14384633  0.11141877     0.03900
C1073       C  0.57338286  0.08291284  0.13745071     0.38600
C1074       C  0.96938849  0.20385027  0.10655440     0.38600
C1075       C  0.95583761  0.14560246  0.08830380     0.37000
C1076       C  0.58451448  0.14077123  0.16879086     0.37000
N1077       N  0.93340094  0.15135264  0.55751813    -0.37800
N1078       N  0.61057892  0.13751831  0.18657098    -0.37800
N1079       N  0.94815015  0.22725766  0.09309144    -0.37300
N1080       N  0.59493196  0.05827857  0.14125697    -0.37300
C1081       C  0.50939839  0.35814308  0.09824664    -0.03900
C1082       C  0.99237216  0.33693341  0.06692754    -0.01100
C1083       C  0.99913341  0.30354028  0.07947695     0.03900
C1084       C  0.52287685  0.29077791  0.12480766    -0.03900
C1085       C  0.53443737  0.31097133  0.15633815    -0.01100
C1086       C  0.52711942  0.34464990  0.14375663     0.03900
C1087       C  0.96900775  0.35099516  0.02512165     0.38600
C1088       C  0.55482174  0.29694190  0.20084008     0.38600
C1089       C  0.53677819  0.36554489  0.17872644     0.37000
C1090       C  0.98309559  0.28454352  0.05009875     0.37000
N1091       N  0.54404398  0.38216606  0.20723350    -0.37800
N1092       N  0.96967828  0.26995610  0.02672437    -0.37800
N1093       N  0.57110459  0.28608398  0.23653310    -0.37300
N1094       N  0.95001556  0.36176608  0.99205885    -0.37300
C1095       C  0.79540167  0.51733747  0.38090529    -0.03900
C1096       C  0.81460102  0.52821477  0.34905027    -0.01100
C1097       C  0.84918081  0.51939936  0.35940088     0.03900
C1098       C  0.86470132  0.50030663  0.40268444    -0.03900
C1099       C  0.84540190  0.48744160  0.43212429    -0.01100
C1100       C  0.81116109  0.49612780  0.42137513     0.03900
C1101       C  0.79873573  0.54973315  0.30695718     0.38600
C1102       C  0.85979226  0.46642856  0.47542423     0.38600
C1103       C  0.79197472  0.48359788  0.45339225     0.37000
C1104       C  0.86847399  0.53010212  0.32511335     0.37000
N1105       N  0.77753261  0.47293788  0.47945143    -0.37800
N1106       N  0.88358206  0.03749625  0.29621459    -0.37800
N1107       N  0.86755443  0.45495514  0.01698384    -0.37300
N1108       N  0.78657296  0.56702566  0.27326878    -0.37300
C1109       C  0.68033576  0.51586287  0.36300935    -0.03900
C1110       C  0.64673921  0.04043416  0.35051515    -0.01100
C1111       C  0.61826125  0.03277172  0.36090488     0.03900
C1112       C  0.62303403  0.50100443  0.38713822    -0.03900
C1113       C  0.65476230  0.47779059  0.39701994    -0.01100
C1114       C  0.68323070  0.48516417  0.38513852     0.03900
C1115       C  0.64271262  0.07370596  0.33489730     0.38600
C1116       C  0.65839053  0.44778864  0.42456537     0.38600
C1117       C  0.71529757  0.46215161  0.40090302     0.37000
C1118       C  0.58568271  0.05648159  0.34906976     0.37000
N1119       N  0.74002041  0.44266220  0.41471281    -0.37800
N1120       N  0.55976471  0.07533071  0.33910422    -0.37800
N1121       N  0.66160490  0.42394526  0.44694677    -0.37300
N1122       N  0.63847800  0.10070790  0.32374121    -0.37300
C1123       C  0.82857927  0.46882009  0.14521457    -0.03900
C1124       C  0.85991784  0.44402680  0.15300896    -0.01100
C1125       C  0.88914237  0.45044926  0.14316525     0.03900
C1126       C  0.88748661  0.48120121  0.12342689    -0.03900
C1127       C  0.85422072  0.00602848  0.11422812    -0.01100
C1128       C  0.82532881  0.99938797  0.12568577     0.03900
C1129       C  0.86223720  0.41063397  0.16505967     0.38600
C1130       C  0.85162477  0.03801258  0.09408785     0.38600
C1131       C  0.79375918  0.02479974  0.11539973     0.37000
C1132       C  0.92102086  0.42501536  0.15206027     0.37000
N1133       N  0.76951713  0.04614571  0.10560977    -0.37800
N1134       N  0.94635872  0.40473922  0.15995937    -0.37800
N1135       N  0.84935053  0.06351832  0.07786487    -0.37300
N1136       N  0.86506053  0.38356933  0.17347189    -0.37300
C1137       C  0.64267735  0.48562709  0.09338905    -0.03900
C1138       C  0.66040518  0.00021240  0.06617893    -0.01100
C1139       C  0.69456016  0.99197475  0.07747747     0.03900
C1140       C  0.71098843  0.47330814  0.11925572    -0.03900
C1141       C  0.69252613  0.45987114  0.14870333    -0.01100
C1142       C  0.65839891  0.46648425  0.13654688     0.03900
C1143       C  0.64563349  0.02267345  0.02452193     0.38600
C1144       C  0.70899695  0.43769648  0.18983157     0.38600
C1145       C  0.63976978  0.45350699  0.16896079     0.37000
C1146       C  0.71391638  0.00496528  0.04623756     0.37000
N1147       N  0.62323565  0.44456660  0.69610287    -0.37800
N1148       N  0.72895540  0.01579479  0.02144576    -0.37800
N1149       N  0.72192886  0.41981600  0.22255463    -0.37300
N1150       N  0.63437153  0.04111823  0.99179323    -0.37300
O1151       O  0.59687116  0.46369915  0.58369033    -0.73900
O1152       O  0.58851425  0.01488312  0.55372596    -0.52800
C1153       C  0.60676062  0.98859059  0.57681060     0.79800
O1154       O  0.51578318  0.41216930  0.89489204    -0.58500
O1155       O  0.97137583  0.41406782  0.93970706    -0.51500
C1156       C  0.99154343  0.40164279  0.90624755     0.71800
O1157       O  0.58144851  0.47508665  0.89413934    -0.73100
O1158       O  0.58267253  0.01947586  0.93982615    -0.53600
C1159       C  0.59393614  0.99875592  0.90601467     0.77800
O1160       O  0.52919145  0.40244201  0.58924857    -0.58200
O1161       O  0.98268181  0.40643014  0.55135583    -0.51300
C1162       C  0.00813916  0.39025864  0.57965383     0.74400
Zr1163     Zr  0.54592731  0.45015100  0.57026584     2.54700
O1164       O  0.59386087  0.40042466  0.57793848    -0.78800
O1165       O  0.54651883  0.45557605  0.65975103    -0.92200
Zr1166     Zr  0.53703099  0.45619306  0.92077866     2.64700
O1167       O  0.58503303  0.40657841  0.92302066    -0.97100
O1168       O  0.53099295  0.46016297  0.83070351    -0.79200
O1169       O  0.56153863  0.47035567  0.99444777    -0.82600
O1170       O  0.52492173  0.43440834  0.99507120    -2.17300
O1171       O  0.92472206  0.00953906  0.60573724    -0.65900
O1172       O  0.92544390  0.46432195  0.55992359    -0.50500
C1173       C  0.91394845  0.48512321  0.59370507     0.72800
O1174       O  0.97418537  0.08555420  0.91565771    -0.58900
O1175       O  0.52504920  0.07747814  0.94554432    -0.50800
C1176       C  0.49879542  0.09442100  0.91969999     0.74600
O1177       O  0.90859850  0.02224071  0.91036358    -0.70300
O1178       O  0.91430314  0.47207493  0.94822934    -0.48900
C1179       C  0.89753539  0.49735764  0.92125112     0.76000
O1180       O  0.98708137  0.07534078  0.60139650    -0.65600
O1181       O  0.53016991  0.07313996  0.55810514    -0.52800
C1182       C  0.50978963  0.08569964  0.59134624     0.74400
Zr1183     Zr  0.96766525  0.03015313  0.57726477     2.77500
O1184       O  0.91783565  0.07799460  0.57059987    -0.96300
O1185       O  0.97078575  0.03050040  0.66739300    -0.77200
Zr1186     Zr  0.95793324  0.03708971  0.93059991     2.70100
O1187       O  0.90903509  0.08590087  0.92613637    -0.78400
O1188       O  0.95956009  0.03690196  0.84087946    -0.97500
Zr1189     Zr  0.53837233  0.02810307  0.50177278     2.21500
Zr1190     Zr  0.96571762  0.45684868  0.99883752     2.11100
O1191       O  0.94329810  0.01664633  0.50350621    -2.46200
O1192       O  0.98146000  0.05150292  0.50368856    -0.78200
O1193       O  0.99078252  0.46964142  0.57517182    -0.70400
O1194       O  0.51673287  0.01394465  0.92152579    -2.31300
O1195       O  0.52668508  0.00648998  0.57693746    -2.27600
O1196       O  0.97841646  0.47757089  0.92360276    -0.72100
H1197       H  0.53188542  0.41082712  0.99346068     0.79800
H1198       H  0.52312224  0.02356232  0.89321924     0.80900
H1199       H  0.91959190  0.02415782  0.50537441     0.83200
H1200       H  0.53744958  0.01319528  0.60519886     0.80800
H1201       H  0.52140570  0.48393596  0.82283267     0.43800
H1202       H  0.95706928  0.01579572  0.83124357     0.42800
H1203       H  0.91067455  0.09714050  0.95741673     0.42500
H1204       H  0.91767043  0.08887914  0.60268078     0.40400
H1205       H  0.95517463  0.05214585  0.67553304     0.43500
H1206       H  0.56262720  0.43468298  0.67306714     0.38300
H1207       H  0.59876762  0.39621770  0.61405279     0.44400
H1208       H  0.59658236  0.40834542  0.89311504     0.40800
H1209       H  0.92260523  0.09277895  0.54639035     0.45800
H1210       H  0.52482010  0.45471310  0.66861873     0.44500
H1211       H  0.59958585  0.40945061  0.95105306     0.44600
H1212       H  0.93850777  0.05367322  0.82884221     0.45000
N1213       N  0.52249589  0.23467649  0.65387318    -0.02100
C1214       C  0.53498577  0.25531234  0.62996138     0.00500
C1215       C  0.55623575  0.23844655  0.59542614    -0.22400
C1216       C  0.55675501  0.20665530  0.59750760    -0.22600
C1217       C  0.53582854  0.20475643  0.63325782     0.00400
H1218       H  0.56775592  0.24888994  0.56842671     0.14200
H1219       H  0.56928759  0.18742623  0.57313239     0.14200
N1220       N  0.47827965  0.25334197  0.85086387    -0.02100
C1221       C  0.46491137  0.28320987  0.87137656     0.00500
C1222       C  0.44480515  0.28111643  0.90824963    -0.22400
C1223       C  0.44589468  0.24912664  0.91103452    -0.22600
C1224       C  0.46660530  0.23248170  0.87571278     0.00400
H1225       H  0.43257280  0.30031260  0.93288110     0.14200
H1226       H  0.43494208  0.23851969  0.93862497     0.14200
N1227       N  0.76726631  0.46991448  0.65137140    -0.02100
C1228       C  0.79748285  0.45785017  0.63176799     0.00500
C1229       C  0.79549580  0.43958073  0.59078638    -0.22400
C1230       C  0.76348774  0.44038440  0.58429808    -0.22600
C1231       C  0.74660769  0.45915857  0.62142192     0.00400
H1232       H  0.81482473  0.42885056  0.56598628     0.14200
H1233       H  0.75298192  0.43052217  0.55344855     0.14200
N1234       N  0.73797530  0.51553257  0.84858271    -0.02100
C1235       C  0.75750884  0.52860821  0.87660310     0.00500
C1236       C  0.73986048  0.54846934  0.91213054    -0.22400
C1237       C  0.70839571  0.54760047  0.90649690    -0.22600
C1238       C  0.70762902  0.52737567  0.86752030     0.00400
H1239       H  0.74961129  0.56004258  0.94167461     0.14200
H1240       H  0.68865750  0.55873977  0.93044903     0.14200
C1241       C  0.76050758  0.48194632  0.70103835    -0.03900
C1242       C  0.73745918  0.51317560  0.70894811    -0.01100
C1243       C  0.73064501  0.52401340  0.75751317     0.03900
C1244       C  0.74496520  0.50327172  0.79915764    -0.03900
C1245       C  0.76818191  0.47210945  0.79145063    -0.01100
C1246       C  0.77498371  0.46117720  0.74278428     0.03900
C1247       C  0.71979907  0.53452115  0.66783992     0.38600
C1248       C  0.78614752  0.45136388  0.83303547     0.38600
C1249       C  0.79428790  0.42726845  0.73578249     0.37000
C1250       C  0.71150524  0.55796284  0.76455234     0.37000
N1251       N  0.80874684  0.39978432  0.73133033    -0.37800
N1252       N  0.69725315  0.58550476  0.76881689    -0.37800
N1253       N  0.80161891  0.43409568  0.86493154    -0.37300
N1254       N  0.70441201  0.55284793  0.63705014    -0.37300
C1255       C  0.51110779  0.23970902  0.70343280    -0.03900
C1256       C  0.97997024  0.25863543  0.71535480    -0.01100
C1257       C  0.96816290  0.26178185  0.76324842     0.03900
C1258       C  0.48980195  0.24829382  0.80139701    -0.03900
C1259       C  0.52290827  0.23037601  0.79330604    -0.01100
C1260       C  0.53368643  0.22710300  0.74470716     0.03900
C1261       C  0.95860230  0.27726273  0.67458421     0.38600
C1262       C  0.54574302  0.21406283  0.83425328     0.38600
C1263       C  0.56865031  0.21378594  0.73735062     0.37000
C1264       C  0.93315156  0.27690805  0.76894158     0.37000
N1265       N  0.59666982  0.20443284  0.73174754    -0.37800
N1266       N  0.90498566  0.28783985  0.77276428    -0.37800
N1267       N  0.56465399  0.19997346  0.86569982    -0.37300
N1268       N  0.94068968  0.29327249  0.64357717    -0.37400
C1269       C  0.48134952  0.19600402  0.87829768    -0.03900
C1270       C  0.97026958  0.17631872  0.85177012    -0.01100
C1271       C  0.97921437  0.14234371  0.86284763     0.03900
C1272       C  0.49661024  0.12801350  0.90119098    -0.03900
C1273       C  0.51198274  0.14711930  0.92938359    -0.01100
C1274       C  0.50318391  0.18100555  0.91928443     0.03900
C1275       C  0.94867244  0.19052575  0.80842823     0.38600
C1276       C  0.53644591  0.13268187  0.96977951     0.38600
C1277       C  0.51548761  0.20066878  0.95325924     0.37000
C1278       C  0.97094571  0.12127429  0.82670865     0.37000
N1279       N  0.52554324  0.21555738  0.98140796    -0.37800
N1280       N  0.96480432  0.10450585  0.79734021    -0.37800
N1281       N  0.55652378  0.12158953  0.00139621    -0.37300
N1282       N  0.93119215  0.20157193  0.77389549    -0.37300
C1283       C  0.48899043  0.37185510  0.88417356    -0.03900
C1284       C  0.51377487  0.34127527  0.89415448    -0.01100
C1285       C  0.50682807  0.31190044  0.88621115     0.03900
C1286       C  0.47548735  0.31266597  0.86564414    -0.03900
C1287       C  0.94992665  0.34398780  0.85266798    -0.01100
C1288       C  0.95720319  0.37320032  0.86003211     0.03900
C1289       C  0.54545629  0.34002785  0.91753492     0.38600
C1290       C  0.91652485  0.34633969  0.83620007     0.38600
C1291       C  0.93238123  0.40470413  0.84686346     0.37000
C1292       C  0.53058429  0.28161924  0.90620395     0.37000
N1293       N  0.91267008  0.42982014  0.83620338    -0.37800
N1294       N  0.55031130  0.25851427  0.92406361    -0.37800
N1295       N  0.88941653  0.34946200  0.82378873    -0.37300
N1296       N  0.57070952  0.33895057  0.93623869    -0.37300
C1297       C  0.51305473  0.11562508  0.61535761    -0.03900
C1298       C  0.54371039  0.11474767  0.63817122    -0.01100
C1299       C  0.54972807  0.14412455  0.65015653     0.03900
C1300       C  0.52543785  0.17501375  0.63827343    -0.03900
C1301       C  0.99480453  0.17493571  0.62235586    -0.01100
C1302       C  0.98882949  0.14600781  0.60732094     0.03900
C1303       C  0.56943479  0.08337363  0.64836326     0.38600
C1304       C  0.96965271  0.20616185  0.60981246     0.38600
C1305       C  0.95803135  0.14854887  0.57981549     0.37000
C1306       C  0.58189143  0.14222967  0.67204179     0.37000
N1307       N  0.93038373  0.14752036  0.06944103    -0.37800
N1308       N  0.60787877  0.13968872  0.68943905    -0.37800
N1309       N  0.94858998  0.23017086  0.59827367    -0.37300
N1310       N  0.58983334  0.05829366  0.65650066    -0.37300
C1311       C  0.50644825  0.35904095  0.59802666    -0.03900
C1312       C  0.99500416  0.33727906  0.57079271    -0.01100
C1313       C  0.00059891  0.30438211  0.58506977     0.03900
C1314       C  0.52001720  0.29180457  0.62567442    -0.03900
C1315       C  0.53097780  0.31239220  0.65724656    -0.01100
C1316       C  0.52386392  0.34592481  0.64392827     0.03900
C1317       C  0.97514254  0.34977934  0.52512981     0.38600
C1318       C  0.55098681  0.29885145  0.70225606     0.38600
C1319       C  0.53464697  0.36673337  0.67774443     0.37000
C1320       C  0.98615804  0.28468949  0.55420649     0.37000
N1321       N  0.54325171  0.38314824  0.70508410    -0.37800
N1322       N  0.97426456  0.26951934  0.52925383    -0.37800
N1323       N  0.56702244  0.28855478  0.73836579    -0.37300
N1324       N  0.95891059  0.35905028  0.48886572    -0.37300
C1325       C  0.79407061  0.51583985  0.88134633    -0.03900
C1326       C  0.81308895  0.52676086  0.84937368    -0.01100
C1327       C  0.84757037  0.51817758  0.85972218     0.03900
C1328       C  0.86285951  0.50047069  0.90412812    -0.03900
C1329       C  0.84354735  0.48841388  0.93481506    -0.01100
C1330       C  0.80965508  0.49555126  0.92279151     0.03900
C1331       C  0.79699453  0.54834654  0.80745768     0.38600
C1332       C  0.85743928  0.46994746  0.98051066     0.38600
C1333       C  0.79060269  0.48211826  0.95387467     0.37000
C1334       C  0.86702588  0.52742100  0.82411640     0.37000
N1335       N  0.77596361  0.47071459  0.97849045    -0.37800
N1336       N  0.88129898  0.04287385  0.79826345    -0.37800
N1337       N  0.87049956  0.44941810  0.50988141    -0.37300
N1338       N  0.78433364  0.56587143  0.77422836    -0.37300
C1339       C  0.67871841  0.51590024  0.85825413    -0.03900
C1340       C  0.64848469  0.03879737  0.84436326    -0.01100
C1341       C  0.61986833  0.03242938  0.85759966     0.03900
C1342       C  0.62084528  0.50179054  0.87956458    -0.03900
C1343       C  0.65202579  0.47710724  0.88540219    -0.01100
C1344       C  0.68088277  0.48409497  0.87487784     0.03900
C1345       C  0.64510984  0.07087064  0.82398323     0.38600
C1346       C  0.65486227  0.44553268  0.90732331     0.38600
C1347       C  0.71263946  0.45975553  0.88864856     0.37000
C1348       C  0.58780498  0.05773903  0.84977911     0.37000
N1349       N  0.73711791  0.43945992  0.90126150    -0.37800
N1350       N  0.56239976  0.07812519  0.84335788    -0.37800
N1351       N  0.65743628  0.42032712  0.92498475    -0.37300
N1352       N  0.64108397  0.09683711  0.80792203    -0.37300
C1353       C  0.82732131  0.46803813  0.64158530    -0.03900
C1354       C  0.85883705  0.44346367  0.64864700    -0.01100
C1355       C  0.88778686  0.45042965  0.63906413     0.03900
C1356       C  0.88570093  0.48141997  0.61982562    -0.03900
C1357       C  0.85362791  0.00775479  0.61151344    -0.01100
C1358       C  0.82456405  0.00055934  0.61955997     0.03900
C1359       C  0.86161853  0.40985693  0.66002941     0.38600
C1360       C  0.85133542  0.03943200  0.59049876     0.38600
C1361       C  0.79319646  0.02443857  0.60271910     0.37000
C1362       C  0.91992281  0.42539710  0.64802250     0.37000
N1363       N  0.76916193  0.04434478  0.58744383    -0.37800
N1364       N  0.94556431  0.40560209  0.65587916    -0.37800
N1365       N  0.84950360  0.06466119  0.57368856    -0.37300
N1366       N  0.86471285  0.38266958  0.66792663    -0.37300
C1367       C  0.64130793  0.48560645  0.59337886    -0.03900
C1368       C  0.65826863  0.00337619  0.56738478    -0.01100
C1369       C  0.69256650  0.99550326  0.57632427     0.03900
C1370       C  0.70986753  0.47220063  0.61789318    -0.03900
C1371       C  0.69121900  0.45953686  0.64820861    -0.01100
C1372       C  0.65702151  0.46648601  0.63642619     0.03900
C1373       C  0.64158492  0.02798793  0.52905326     0.38600
C1374       C  0.70732321  0.43838415  0.69052492     0.38600
C1375       C  0.63811175  0.45427466  0.66938144     0.37000
C1376       C  0.71018044  0.01041909  0.54492581     0.37000
N1377       N  0.62528143  0.44306231  0.19535945    -0.37800
N1378       N  0.72327295  0.02300727  0.51939988    -0.37800
N1379       N  0.71971862  0.42151110  0.72453526    -0.37300
N1380       N  0.62869462  0.04798473  0.49891610    -0.37300
O1381       O  0.59720617  0.96415974  0.08552131    -0.73900
O1382       O  0.59088656  0.51345377  0.04889811    -0.52800
C1383       C  0.60831174  0.48782603  0.07468599     0.79800
O1384       O  0.51703903  0.91118679  0.39807291    -0.58500
O1385       O  0.97068012  0.91415545  0.44409969    -0.51500
C1386       C  0.99078506  0.90104138  0.41095295     0.71800
O1387       O  0.58092372  0.97642644  0.39635171    -0.73100
O1388       O  0.58204024  0.51889846  0.44401847    -0.53600
C1389       C  0.59406679  0.49758716  0.41138124     0.77800
O1390       O  0.53051884  0.90230926  0.08916904    -0.58200
O1391       O  0.98081940  0.90692820  0.04763835    -0.51300
C1392       C  0.00619178  0.89064408  0.07590238     0.74400
Zr1393     Zr  0.54723720  0.94970786  0.06788084     2.54700
O1394       O  0.59409321  0.89905868  0.07005454    -0.78800
O1395       O  0.54830366  0.95354549  0.15760634    -0.92200
Zr1396     Zr  0.53689386  0.95647492  0.42262082     2.64700
O1397       O  0.58807589  0.91022504  0.42305904    -0.97100
O1398       O  0.52881561  0.95889223  0.33269463    -0.79200
O1399       O  0.56107937  0.97020660  0.49677299    -0.82600
O1400       O  0.52485673  0.93386018  0.49623111    -2.17300
O1401       O  0.92676986  0.50786622  0.10717107    -0.65900
O1402       O  0.92420236  0.96467961  0.05715758    -0.50500
C1403       C  0.91341797  0.98454105  0.09228146     0.72800
O1404       O  0.97489631  0.58380427  0.41143526    -0.58900
O1405       O  0.52472723  0.57808316  0.44891634    -0.50800
C1406       C  0.49895941  0.59474759  0.42179836     0.74600
O1407       O  0.90953123  0.52119662  0.41104166    -0.70300
O1408       O  0.91452090  0.97348568  0.44780612    -0.48900
C1409       C  0.89788211  0.99859888  0.42055179     0.76000
O1410       O  0.98871840  0.57448899  0.09858445    -0.65600
O1411       O  0.53253136  0.57239351  0.05562312    -0.52800
C1412       C  0.51239612  0.58475141  0.08920976     0.74400
Zr1413     Zr  0.96862572  0.52897165  0.07636318     2.77500
O1414       O  0.91788837  0.57554494  0.07673383    -0.96300
O1415       O  0.97660658  0.52809371  0.16623556    -0.77200
Zr1416     Zr  0.95860146  0.53600876  0.43150488     2.70100
O1417       O  0.91115651  0.58512770  0.43973866    -0.78400
O1418       O  0.95284567  0.53840648  0.34138070    -0.97500
Zr1419     Zr  0.53941557  0.52841369  0.99812534     2.21500
Zr1420     Zr  0.96501377  0.95854526  0.49995444     2.11100
O1421       O  0.94406698  0.51505867  0.00266325    -2.46200
O1422       O  0.98072255  0.55089211  0.00201727    -0.78200
O1423       O  0.98905407  0.97002801  0.07365327    -0.70400
O1424       O  0.51598261  0.51435156  0.42429206    -2.31300
O1425       O  0.52719651  0.50754637  0.07354424    -2.27600
O1426       O  0.97709057  0.97913979  0.42449841    -0.72100
H1427       H  0.53201422  0.91029764  0.49407013     0.79800
H1428       H  0.52279551  0.52380823  0.39615771     0.80900
H1429       H  0.92040623  0.52248566  0.00498175     0.83200
H1430       H  0.53798779  0.51432443  0.10164869     0.80800
H1431       H  0.51485385  0.98180391  0.32453551     0.43800
H1432       H  0.97418482  0.53944371  0.33110659     0.42800
H1433       H  0.90646744  0.59564368  0.40626462     0.42500
H1434       H  0.92142542  0.58856156  0.10511839     0.40400
H1435       H  0.99941674  0.51304341  0.17378178     0.43500
H1436       H  0.56544380  0.93298209  0.16993488     0.38300
H1437       H  0.60644224  0.89901065  0.10213442     0.44400
H1438       H  0.58876281  0.89783622  0.45420185     0.40800
H1439       H  0.91817305  0.58890069  0.04705368     0.45800
H1440       H  0.52721998  0.95117943  0.16661272     0.44500
H1441       H  0.58426040  0.89606308  0.39647350     0.44600
H1442       H  0.95302953  0.51627780  0.33210395     0.45000
N1443       N  0.52281894  0.73407196  0.14831031    -0.02100
C1444       C  0.53356935  0.75554588  0.12318956     0.00500
C1445       C  0.55262871  0.74012693  0.08543558    -0.22400
C1446       C  0.55363526  0.70826472  0.08667001    -0.22600
C1447       C  0.53527378  0.70496590  0.12524130     0.00400
H1448       H  0.56246255  0.75157544  0.05742498     0.14200
H1449       H  0.56509391  0.68977696  0.06053672     0.14200
N1450       N  0.48088433  0.75212308  0.34719031    -0.02100
C1451       C  0.46782533  0.78218871  0.36744248     0.00500
C1452       C  0.44743428  0.78065487  0.40422699    -0.22400
C1453       C  0.44792882  0.74893139  0.40735171    -0.22600
C1454       C  0.46856328  0.73186270  0.37233188     0.00400
H1455       H  0.43525268  0.80012478  0.42847492     0.14200
H1456       H  0.43662742  0.73873969  0.43497995     0.14200
N1457       N  0.76738443  0.96889085  0.15125020    -0.02100
C1458       C  0.79738903  0.95680867  0.13114642     0.00500
C1459       C  0.79533923  0.93780984  0.09109230    -0.22400
C1460       C  0.76349860  0.93802265  0.08586290    -0.22600
C1461       C  0.74675284  0.95736838  0.12259972     0.00400
H1462       H  0.81447861  0.92691427  0.06607125     0.14200
H1463       H  0.75289258  0.92766336  0.05571455     0.14200
N1464       N  0.73829475  0.01579736  0.34782735    -0.02100
C1465       C  0.75822802  0.02945806  0.37380546     0.00500
C1466       C  0.74089962  0.05078406  0.40803391    -0.22400
C1467       C  0.70919669  0.05040247  0.40352185    -0.22600
C1468       C  0.70793400  0.02882980  0.36667167     0.00400
H1469       H  0.75097044  0.06313079  0.43612076     0.14200
H1470       H  0.68964871  0.06271178  0.42716005     0.14200
C1471       C  0.76091476  0.98141290  0.20072568    -0.03900
C1472       C  0.73725046  0.01237853  0.20827874    -0.01100
C1473       C  0.73032669  0.02343900  0.25671618     0.03900
C1474       C  0.74486449  0.00300172  0.29860840    -0.03900
C1475       C  0.76877637  0.97215532  0.29123909    -0.01100
C1476       C  0.77612074  0.96122611  0.24274473     0.03900
C1477       C  0.71933449  0.03329133  0.16687719     0.38600
C1478       C  0.78697015  0.95163796  0.33292644     0.38600
C1479       C  0.79731469  0.92787636  0.23643021     0.37000
C1480       C  0.71117350  0.05743575  0.26345448     0.37000
N1481       N  0.81362546  0.90081121  0.23315723    -0.37800
N1482       N  0.69699027  0.08496963  0.26797294    -0.37800
N1483       N  0.80274318  0.93429346  0.36453001    -0.37300
N1484       N  0.70385736  0.05107837  0.13554004    -0.37300
C1485       C  0.51182155  0.73826033  0.19829435    -0.03900
C1486       C  0.97866889  0.75847394  0.21098850    -0.01100
C1487       C  0.96787746  0.76253258  0.25965915     0.03900
C1488       C  0.49171056  0.74666491  0.29725353    -0.03900
C1489       C  0.52419378  0.72726434  0.28796380    -0.01100
C1490       C  0.53435333  0.72378024  0.23893354     0.03900
C1491       C  0.95640930  0.77582863  0.17008908     0.38600
C1492       C  0.54701489  0.70958282  0.32806084     0.38600
C1493       C  0.56883343  0.70743758  0.23073813     0.37000
C1494       C  0.93336491  0.77967096  0.26653589     0.37000
N1495       N  0.59666022  0.69513362  0.22526136    -0.37800
N1496       N  0.90549968  0.79281178  0.27066745    -0.37800
N1497       N  0.56602606  0.69443218  0.35862549    -0.37300
N1498       N  0.93790823  0.79066676  0.13872840    -0.37400
C1499       C  0.48272889  0.69543429  0.37592768    -0.03900
C1500       C  0.97091521  0.67527300  0.34726380    -0.01100
C1501       C  0.97864617  0.64145123  0.35870928     0.03900
C1502       C  0.49718290  0.62800938  0.40212912    -0.03900
C1503       C  0.51276858  0.64745966  0.42924615    -0.01100
C1504       C  0.50544199  0.68083558  0.41615249     0.03900
C1505       C  0.94845648  0.69037712  0.30511520     0.38600
C1506       C  0.53545239  0.63409637  0.47202410     0.38600
C1507       C  0.51970048  0.70090846  0.44642063     0.37000
C1508       C  0.96692665  0.62153956  0.32448168     0.37000
N1509       N  0.53099760  0.71692784  0.47056410    -0.37800
N1510       N  0.95761101  0.60594949  0.29653674    -0.37800
N1511       N  0.55386447  0.62383674  0.50590702    -0.37300
N1512       N  0.93033394  0.70257723  0.27173519    -0.37300
C1513       C  0.49024945  0.87101303  0.38518706    -0.03900
C1514       C  0.51577361  0.84056923  0.39200962    -0.01100
C1515       C  0.50976360  0.81113507  0.38026022     0.03900
C1516       C  0.47812855  0.81179339  0.36115971    -0.03900
C1517       C  0.94836344  0.84350909  0.35854935    -0.01100
C1518       C  0.95528986  0.87270030  0.36765281     0.03900
C1519       C  0.54737801  0.83919144  0.41579443     0.38600
C1520       C  0.91445930  0.84571987  0.34577820     0.38600
C1521       C  0.92955881  0.90421841  0.35848957     0.37000
C1522       C  0.53545755  0.78041267  0.39350034     0.37000
N1523       N  0.90917392  0.92939642  0.35114829    -0.37800
N1524       N  0.55712938  0.75697301  0.40548260    -0.37800
N1525       N  0.88701228  0.84841988  0.33694772    -0.37300
N1526       N  0.57257498  0.83787614  0.43496691    -0.37300
C1527       C  0.51599083  0.61418388  0.11373125    -0.03900
C1528       C  0.54758841  0.61415624  0.13095464    -0.01100
C1529       C  0.55345732  0.64396214  0.13892860     0.03900
C1530       C  0.52727046  0.67425359  0.13262787    -0.03900
C1531       C  0.99501179  0.67444501  0.11754694    -0.01100
C1532       C  0.98952120  0.64484555  0.10519163     0.03900
C1533       C  0.57439806  0.58330498  0.13927664     0.38600
C1534       C  0.96891965  0.70496647  0.10468474     0.38600
C1535       C  0.95781898  0.64587956  0.08215943     0.37000
C1536       C  0.58728331  0.64323826  0.14783917     0.37000
N1537       N  0.92897332  0.64484374  0.56908849    -0.37800
N1538       N  0.61454427  0.64202980  0.15349436    -0.37800
N1539       N  0.94696250  0.72817516  0.09272289    -0.37300
N1540       N  0.59576744  0.55878244  0.14654712    -0.37300
C1541       C  0.50699727  0.85908289  0.09740936    -0.03900
C1542       C  0.99384688  0.83748867  0.06684996    -0.01100
C1543       C  0.99939658  0.80482289  0.08204496     0.03900
C1544       C  0.51912663  0.79187625  0.12249190    -0.03900
C1545       C  0.53316884  0.81067085  0.15280859    -0.01100
C1546       C  0.52707416  0.84415261  0.14063357     0.03900
C1547       C  0.97544927  0.84910584  0.01982185     0.38600
C1548       C  0.55500606  0.79516735  0.19538419     0.38600
C1549       C  0.54132306  0.86297177  0.17334090     0.37000
C1550       C  0.98538164  0.78456254  0.05176134     0.37000
N1551       N  0.55273449  0.87760862  0.20012934    -0.37800
N1552       N  0.97392014  0.76868814  0.02758951    -0.37800
N1553       N  0.57232128  0.78298803  0.22957124    -0.37300
N1554       N  0.96049357  0.85762222  0.98234632    -0.37300
C1555       C  0.79487098  0.01618421  0.37846782    -0.03900
C1556       C  0.81420387  0.02649630  0.34620103    -0.01100
C1557       C  0.84847137  0.01895423  0.35790770     0.03900
C1558       C  0.86355351  0.00103431  0.40220316    -0.03900
C1559       C  0.84442891  0.98760612  0.43123060    -0.01100
C1560       C  0.81032593  0.99574853  0.41983282     0.03900
C1561       C  0.79879664  0.04549725  0.30163141     0.38600
C1562       C  0.85897205  0.96587853  0.47379308     0.38600
C1563       C  0.79097385  0.98289298  0.45113075     0.37000
C1564       C  0.86809061  0.02927742  0.32375814     0.37000
N1565       N  0.77604530  0.97197450  0.47593405    -0.37800
N1566       N  0.88339295  0.53881293  0.29719452    -0.37800
N1567       N  0.87127642  0.94807758  0.00758066    -0.37300
N1568       N  0.78686619  0.06048203  0.26573207    -0.37300
C1569       C  0.67877332  0.01715554  0.36040633    -0.03900
C1570       C  0.64825498  0.53786694  0.34949575    -0.01100
C1571       C  0.61990777  0.53061100  0.36188290     0.03900
C1572       C  0.62124522  0.00275822  0.38465411    -0.03900
C1573       C  0.65280311  0.97875061  0.39190834    -0.01100
C1574       C  0.68134184  0.98567222  0.37905049     0.03900
C1575       C  0.64388672  0.56921643  0.32569475     0.38600
C1576       C  0.65634602  0.94808347  0.41745707     0.38600
C1577       C  0.71338630  0.96147046  0.39140612     0.37000
C1578       C  0.58735741  0.55479315  0.35171817     0.37000
N1579       N  0.73823301  0.94126836  0.40254575    -0.37800
N1580       N  0.56147346  0.57421723  0.34403255    -0.37800
N1581       N  0.65947014  0.92370742  0.43829033    -0.37300
N1582       N  0.63882161  0.59457110  0.30667080    -0.37300
C1583       C  0.82707559  0.96725208  0.13996775    -0.03900
C1584       C  0.85869991  0.94282739  0.14712991    -0.01100
C1585       C  0.88752020  0.95013936  0.13828690     0.03900
C1586       C  0.88513735  0.98085515  0.11786046    -0.03900
C1587       C  0.85698898  0.50700251  0.12149768    -0.01100
C1588       C  0.82761469  0.50077941  0.13144047     0.03900
C1589       C  0.86181292  0.90895058  0.15701445     0.38600
C1590       C  0.85522276  0.53947344  0.10476462     0.38600
C1591       C  0.79641565  0.52635778  0.11934487     0.37000
C1592       C  0.91981522  0.92563276  0.14867727     0.37000
N1593       N  0.77252475  0.54769999  0.10776033    -0.37800
N1594       N  0.94557624  0.90629440  0.15776317    -0.37800
N1595       N  0.85350001  0.56551144  0.09168383    -0.37300
N1596       N  0.86513862  0.88155055  0.16329229    -0.37300
C1597       C  0.64136745  0.98636224  0.09465951    -0.03900
C1598       C  0.66108313  0.50093275  0.06616784    -0.01100
C1599       C  0.69481287  0.49479921  0.07918794     0.03900
C1600       C  0.71010035  0.97111463  0.11849684    -0.03900
C1601       C  0.69078533  0.96061029  0.15052868    -0.01100
C1602       C  0.65645898  0.96841120  0.13895532     0.03900
C1603       C  0.64634768  0.52196243  0.02299368     0.38600
C1604       C  0.70636792  0.94078411  0.19434362     0.38600
C1605       C  0.63673635  0.95870575  0.17360494     0.37000
C1606       C  0.71319536  0.51025202  0.05012924     0.37000
N1607       N  0.62690471  0.93952575  0.69320284    -0.37800
N1608       N  0.72724501  0.52328736  0.02714769    -0.37800
N1609       N  0.71859470  0.92503422  0.22948060    -0.37300
N1610       N  0.63509828  0.53900835  0.98872296    -0.37300
O1611       O  0.59795369  0.96326756  0.58363205    -0.73900
O1612       O  0.58923183  0.51435581  0.55107040    -0.52800
C1613       C  0.60674958  0.48823057  0.57546294     0.79800
O1614       O  0.51680363  0.91196625  0.89291352    -0.58500
O1615       O  0.97143419  0.91471500  0.93765093    -0.51500
C1616       C  0.99128383  0.90291398  0.90350026     0.71800
O1617       O  0.58264548  0.97552922  0.89376101    -0.73100
O1618       O  0.58137694  0.51956558  0.93903545    -0.53600
C1619       C  0.59251269  0.49855807  0.90551040     0.77800
O1620       O  0.53293041  0.89970974  0.58754510    -0.58200
O1621       O  0.97814936  0.90944392  0.55125198    -0.51300
C1622       C  0.00338694  0.89274482  0.57925599     0.74400
Zr1623     Zr  0.54782478  0.94867730  0.57059082     2.54700
O1624       O  0.59640098  0.89950979  0.57800126    -0.78800
O1625       O  0.54911248  0.95231862  0.66032658    -0.92200
Zr1626     Zr  0.53819748  0.95586922  0.91928134     2.64700
O1627       O  0.58708647  0.90715099  0.91999718    -0.97100
O1628       O  0.53145180  0.95973229  0.82924393    -0.79200
O1629       O  0.56174035  0.97008420  0.99380706    -0.82600
O1630       O  0.52506912  0.93435066  0.99325899    -2.17300
O1631       O  0.92465490  0.50878068  0.60530002    -0.65900
O1632       O  0.92349534  0.96633600  0.55879170    -0.50500
C1633       C  0.91320309  0.98648319  0.59353487     0.72800
O1634       O  0.97262833  0.58439404  0.90937260    -0.58900
O1635       O  0.52474276  0.57809226  0.94681397    -0.50800
C1636       C  0.49928377  0.59442926  0.91869853     0.74600
O1637       O  0.90790072  0.52116204  0.91069024    -0.70300
O1638       O  0.91573988  0.97231093  0.94544979    -0.48900
C1639       C  0.89876760  0.99779976  0.91920112     0.76000
O1640       O  0.98763824  0.57327641  0.60482916    -0.65600
O1641       O  0.53024844  0.57307803  0.55630072    -0.52800
C1642       C  0.50939031  0.58577165  0.58876568     0.74400
Zr1643     Zr  0.96922169  0.52761333  0.57958392     2.77500
O1644       O  0.92212562  0.57745059  0.58421003    -0.96300
O1645       O  0.97845614  0.51858216  0.66897792    -0.77200
Zr1646     Zr  0.95778029  0.53551386  0.92794037     2.70100
O1647       O  0.90886272  0.58423875  0.91997364    -0.78400
O1648       O  0.95911872  0.53106273  0.83838378    -0.97500
Zr1649     Zr  0.53837851  0.52853879  0.49982236     2.21500
Zr1650     Zr  0.96610436  0.95707128  0.99783691     2.11100
O1651       O  0.94512322  0.51419068  0.50511722    -2.46200
O1652       O  0.98115242  0.55070511  0.50605811    -0.78200
O1653       O  0.98849930  0.97206178  0.57488845    -0.70400
O1654       O  0.51571086  0.51430647  0.92365287    -2.31300
O1655       O  0.52532672  0.50800525  0.57480496    -2.27600
O1656       O  0.97837695  0.97922355  0.92369602    -0.72100
H1657       H  0.53197002  0.91075782  0.99184892     0.79800
H1658       H  0.52185687  0.52391664  0.89504934     0.80900
H1659       H  0.92142344  0.52139327  0.50693242     0.83200
H1660       H  0.53580668  0.51483830  0.60324234     0.80800
H1661       H  0.54706020  0.93885303  0.81830272     0.43800
H1662       H  0.95386053  0.51090432  0.83109800     0.42800
H1663       H  0.89991090  0.58642118  0.95312344     0.42500
H1664       H  0.90625102  0.57595001  0.55709759     0.40400
H1665       H  0.99512296  0.52892054  0.67899876     0.43500
H1666       H  0.56607944  0.93160020  0.67246670     0.38300
H1667       H  0.59401351  0.88657786  0.54886800     0.44400
H1668       H  0.59919460  0.91034963  0.89148783     0.40800
H1669       H  0.91193911  0.57476841  0.61508085     0.45800
H1670       H  0.52796187  0.95013842  0.66937354     0.44500
H1671       H  0.60085460  0.90925759  0.94957804     0.44600
H1672       H  0.93937359  0.54912093  0.82520263     0.45000
N1673       N  0.52478306  0.73240563  0.64807607    -0.02100
C1674       C  0.53686135  0.75156186  0.62018137     0.00500
C1675       C  0.55503229  0.73372718  0.58329292    -0.22400
C1676       C  0.55425100  0.70257195  0.58812247    -0.22600
C1677       C  0.53572813  0.70221724  0.62789713     0.00400
H1678       H  0.56546827  0.74311175  0.55361317     0.14200
H1679       H  0.56435306  0.68270648  0.56337943     0.14200
N1680       N  0.47980820  0.75306803  0.84502942    -0.02100
C1681       C  0.46715134  0.78241659  0.86754265     0.00500
C1682       C  0.44759718  0.77955362  0.90472723    -0.22400
C1683       C  0.44804806  0.74780612  0.90550456    -0.22600
C1684       C  0.46823131  0.73174632  0.86916517     0.00400
H1685       H  0.43586720  0.79814690  0.93055240     0.14200
H1686       H  0.43751212  0.73671125  0.93304474     0.14200
N1687       N  0.76712635  0.97019667  0.64605236    -0.02100
C1688       C  0.79729551  0.95780853  0.62684545     0.00500
C1689       C  0.79529701  0.93962261  0.58576699    -0.22400
C1690       C  0.76308200  0.94097820  0.57882061    -0.22600
C1691       C  0.74637574  0.95986438  0.61594360     0.00400
H1692       H  0.81469338  0.92875169  0.56114630     0.14200
H1693       H  0.75245009  0.93118575  0.54802908     0.14200
N1694       N  0.73958269  0.01389487  0.84410284    -0.02100
C1695       C  0.75975127  0.02585595  0.87271461     0.00500
C1696       C  0.74260889  0.04558055  0.90875140    -0.22400
C1697       C  0.71069121  0.04602206  0.90245998    -0.22600
C1698       C  0.70923025  0.02649965  0.86280932     0.00400
H1699       H  0.75286212  0.05637407  0.93875246     0.14200
H1700       H  0.69114007  0.05729380  0.92665295     0.14200
C1701       C  0.76063516  0.98173536  0.69588766    -0.03900
C1702       C  0.73887844  0.01344513  0.70453885    -0.01100
C1703       C  0.73261110  0.02383700  0.75341826     0.03900
C1704       C  0.74620612  0.00222076  0.79439894    -0.03900
C1705       C  0.76852705  0.97076212  0.78585249    -0.01100
C1706       C  0.77461892  0.96024724  0.73696927     0.03900
C1707       C  0.72223489  0.03574757  0.66388527     0.38600
C1708       C  0.78680980  0.94934650  0.82657146     0.38600
C1709       C  0.79274616  0.92613300  0.72914734     0.37000
C1710       C  0.71571571  0.05816611  0.76175065     0.37000
N1711       N  0.80609775  0.89845213  0.72440597    -0.37800
N1712       N  0.70373455  0.08592460  0.76765508    -0.37800
N1713       N  0.80279366  0.93127856  0.85723232    -0.37300
N1714       N  0.70766804  0.05476474  0.63338353    -0.37300
C1715       C  0.51347797  0.73927175  0.69761865    -0.03900
C1716       C  0.97389157  0.75844879  0.70886002    -0.01100
C1717       C  0.96310932  0.76209996  0.75753350     0.03900
C1718       C  0.49168669  0.74867218  0.79560820    -0.03900
C1719       C  0.52416097  0.72869428  0.78747005    -0.01100
C1720       C  0.53525955  0.72512674  0.73905707     0.03900
C1721       C  0.95123574  0.77492545  0.66780392     0.38600
C1722       C  0.54610146  0.71075596  0.82825549     0.38600
C1723       C  0.57004962  0.70962389  0.73231251     0.37000
C1724       C  0.92827082  0.77706937  0.76464269     0.37000
N1725       N  0.59812280  0.69847930  0.72781863    -0.37800
N1726       N  0.90016870  0.78802485  0.76908370    -0.37800
N1727       N  0.56428159  0.69553102  0.85965183    -0.37300
N1728       N  0.93248708  0.78907059  0.63621415    -0.37400
C1729       C  0.48381237  0.69524674  0.87268145    -0.03900
C1730       C  0.96619267  0.67792645  0.84880000    -0.01100
C1731       C  0.97395652  0.64382241  0.85894040     0.03900
C1732       C  0.49786040  0.62774603  0.89905592    -0.03900
C1733       C  0.51151967  0.64781998  0.92835272    -0.01100
C1734       C  0.50395194  0.68127317  0.91568249     0.03900
C1735       C  0.94222321  0.69380247  0.80871165     0.38600
C1736       C  0.53283753  0.63491761  0.97256045     0.38600
C1737       C  0.51573706  0.70200500  0.94846780     0.37000
C1738       C  0.96067609  0.62479115  0.82514762     0.37000
N1739       N  0.52479750  0.71883127  0.97435967    -0.37800
N1740       N  0.95026606  0.60977878  0.79759144    -0.37800
N1741       N  0.55044784  0.62515438  0.00740483    -0.37300
N1742       N  0.92287826  0.70608436  0.77672196    -0.37300
C1743       C  0.48907266  0.87241855  0.87993109    -0.03900
C1744       C  0.51502571  0.84212569  0.88434853    -0.01100
C1745       C  0.50859288  0.81245340  0.87615053     0.03900
C1746       C  0.47628749  0.81277226  0.86141554    -0.03900
C1747       C  0.94944611  0.84517970  0.84800142    -0.01100
C1748       C  0.95648300  0.87453267  0.85664901     0.03900
C1749       C  0.54784360  0.84121385  0.90210818     0.38600
C1750       C  0.91647063  0.84737860  0.82948693     0.38600
C1751       C  0.93141666  0.90602431  0.84446738     0.37000
C1752       C  0.53427950  0.78202490  0.89101871     0.37000
N1753       N  0.91147632  0.93110590  0.83439378    -0.37800
N1754       N  0.55550386  0.75872193  0.90496495    -0.37800
N1755       N  0.88973764  0.85042323  0.81498351    -0.37300
N1756       N  0.57400160  0.84049920  0.91624965    -0.37300
C1757       C  0.51249337  0.61508153  0.61328042    -0.03900
C1758       C  0.54286936  0.61361432  0.63738847    -0.01100
C1759       C  0.54930714  0.64271217  0.64857724     0.03900
C1760       C  0.52486749  0.67359506  0.63748369    -0.03900
C1761       C  0.99107675  0.67504343  0.61729170    -0.01100
C1762       C  0.98591055  0.64491183  0.60803215     0.03900
C1763       C  0.56830394  0.58203870  0.64783426     0.38600
C1764       C  0.96538835  0.70498412  0.60034343     0.38600
C1765       C  0.95427014  0.64479054  0.58630024     0.37000
C1766       C  0.58247094  0.64046084  0.66620297     0.37000
N1767       N  0.93253413  0.64694315  0.06359895    -0.37800
N1768       N  0.60944079  0.63736850  0.67938914    -0.37800
N1769       N  0.94409056  0.72780214  0.58498563    -0.37300
N1770       N  0.58851815  0.55685809  0.65610199    -0.37300
C1771       C  0.51098449  0.85559060  0.59457811    -0.03900
C1772       C  0.98758525  0.84111807  0.57170131    -0.01100
C1773       C  0.99443455  0.80770267  0.58386003     0.03900
C1774       C  0.52466795  0.78786019  0.61712860    -0.03900
C1775       C  0.54001884  0.80613543  0.64623802    -0.01100
C1776       C  0.53227495  0.84006828  0.63634334     0.03900
C1777       C  0.96435581  0.85522671  0.52976650     0.38600
C1778       C  0.56578229  0.78958328  0.68378656     0.38600
C1779       C  0.54583807  0.85884162  0.67017720     0.37000
C1780       C  0.98081169  0.78802217  0.55165593     0.37000
N1781       N  0.55650198  0.87356019  0.69788665    -0.37800
N1782       N  0.97017775  0.77238676  0.52564253    -0.37800
N1783       N  0.58681838  0.77654528  0.71317375    -0.37300
N1784       N  0.94535995  0.86596315  0.49669539    -0.37300
C1785       C  0.79630643  0.01290475  0.87628701    -0.03900
C1786       C  0.81483378  0.02542496  0.84560778    -0.01100
C1787       C  0.84890315  0.01884120  0.85746358     0.03900
C1788       C  0.86456284  0.99997705  0.90077036    -0.03900
C1789       C  0.84608155  0.98523043  0.92896225    -0.01100
C1790       C  0.81231805  0.99169137  0.91657852     0.03900
C1791       C  0.79869733  0.04635175  0.80307696     0.38600
C1792       C  0.86056579  0.96472770  0.97275530     0.38600
C1793       C  0.79375140  0.97692622  0.94653541     0.37000
C1794       C  0.86732724  0.03199464  0.82492690     0.37000
N1795       N  0.77961872  0.96452216  0.97048798    -0.37800
N1796       N  0.88207544  0.53477728  0.79492645    -0.37800
N1797       N  0.86999304  0.94806320  0.50731739    -0.37300
N1798       N  0.78649189  0.06310228  0.76887291    -0.37300
C1799       C  0.68016572  0.01513775  0.85435186    -0.03900
C1800       C  0.64698944  0.53955945  0.84815331    -0.01100
C1801       C  0.61828795  0.53217193  0.85748821     0.03900
C1802       C  0.62242239  0.00218323  0.88037593    -0.03900
C1803       C  0.65350199  0.97722174  0.88504127    -0.01100
C1804       C  0.68225145  0.98371655  0.87246024     0.03900
C1805       C  0.64350947  0.57301876  0.83439045     0.38600
C1806       C  0.65657778  0.94576968  0.90755897     0.38600
C1807       C  0.71405740  0.95897926  0.88429472     0.37000
C1808       C  0.58598803  0.55664083  0.84678650     0.37000
N1809       N  0.73861730  0.93829795  0.89513551    -0.37800
N1810       N  0.56038683  0.57626314  0.83774414    -0.37800
N1811       N  0.65964849  0.92055069  0.92561725    -0.37300
N1812       N  0.63963470  0.60017169  0.82477840    -0.37300
C1813       C  0.82641625  0.96888334  0.63638393    -0.03900
C1814       C  0.85796692  0.94527555  0.64791830    -0.01100
C1815       C  0.88689459  0.95272140  0.64018475     0.03900
C1816       C  0.88473583  0.98321853  0.61891168    -0.03900
C1817       C  0.85502219  0.50696132  0.61833627    -0.01100
C1818       C  0.82590266  0.50022791  0.62832133     0.03900
C1819       C  0.86118312  0.91197869  0.66218772     0.38600
C1820       C  0.85279062  0.53978352  0.60275170     0.38600
C1821       C  0.79445507  0.52565455  0.61725158     0.37000
C1822       C  0.91908862  0.92836080  0.65200332     0.37000
N1823       N  0.77028615  0.54689738  0.60662709    -0.37800
N1824       N  0.94466816  0.90894183  0.66201070    -0.37800
N1825       N  0.85045215  0.56619672  0.59076923    -0.37300
N1826       N  0.86502280  0.88494845  0.67262029    -0.37300
C1827       C  0.64101734  0.98665588  0.59429215    -0.03900
C1828       C  0.65975643  0.50070052  0.56583311    -0.01100
C1829       C  0.69370284  0.49380357  0.57793618     0.03900
C1830       C  0.70982424  0.97256693  0.61414152    -0.03900
C1831       C  0.69230468  0.95870771  0.64466454    -0.01100
C1832       C  0.65800396  0.96575419  0.63497369     0.03900
C1833       C  0.64469609  0.52283654  0.52392948     0.38600
C1834       C  0.70977268  0.93553831  0.68411362     0.38600
C1835       C  0.64048998  0.95128105  0.66716998     0.37000
C1836       C  0.71210534  0.50924660  0.54887223     0.37000
N1837       N  0.62129208  0.95112230  0.20193399    -0.37800
N1838       N  0.72605588  0.52250630  0.52611001    -0.37800
N1839       N  0.72319237  0.91687912  0.71568925    -0.37300
N1840       N  0.63335516  0.54097819  0.49087665    -0.37300
loop_ 
_geom_bond_atom_site_label_1 
_geom_bond_atom_site_label_2 
_geom_bond_distance 
_geom_bond_site_symmetry_2 
_ccdc_geom_bond_type 
O1          Zr13   2.443       .  S
O1          C463   1.288       .  A
O2          Zr39   2.413       .  S
O2            C3   1.284   1_545  A
C3          O461   1.290       .  A
C3          C677   1.505       .  S
O4          Zr16   2.463       .  S
O4          C926   1.291   1_455  A
O5          Zr40   2.424       .  S
O5            C6   1.287       .  A
C6          O924   1.291       .  A
C6         C1053   1.494       .  S
O7          Zr16   2.447       .  S
O7          C469   1.287       .  A
O8         Zr269   2.438       .  S
O8            C9   1.290   1_545  A
C9          O467   1.287       .  A
C9          C652   1.485       .  S
O10         Zr13   2.466       .  S
O10         C932   1.292       .  A
O11        Zr270   2.426   1_554  S
O11          C12   1.287       .  A
C12         O930   1.292       .  A
C12        C1081   1.511       .  S
Zr13         O14   2.437       .  S
Zr13         O15   2.433       .  S
Zr13        O249   2.380   1_554  S
Zr13        O250   2.371   1_554  S
Zr13        O963   2.369   1_455  S
Zr13        O505   2.380       .  S
O14          H57   0.990       .  S
O15          H56   0.989       .  S
O15          H60   0.990       .  S
Zr16         O17   2.437       .  S
Zr16         O18   2.434       .  S
Zr16         O20   2.370       .  S
Zr16         O19   2.375       .  S
Zr16        O504   2.383       .  S
Zr16        O966   2.376   1_455  S
O17          H58   0.989       .  S
O17          H61   0.989       .  S
O18          H51   0.990       .  S
O19        Zr243   2.372       .  S
O19        Zr729   2.383       .  S
O20        Zr243   2.374       .  S
O20        Zr960   2.381   1_455  S
O20          H47   0.966       .  S
O21         Zr33   2.470       .  S
O21         C483   1.292   1_545  A
O22        Zr270   2.427   1_554  S
O22          C23   1.287       .  A
C23         O481   1.292       .  A
C23         C206   1.501       .  S
O24         Zr36   2.465       .  S
O24         C946   1.293       .  A
O25        Zr269   2.421       .  S
O25          C26   1.286       .  A
C26         O944   1.293   1_455  A
C26         C122   1.507   1_455  S
O27         Zr36   2.458       .  S
O27         C489   1.291   1_545  A
O28         Zr40   2.433       .  S
O28          C29   1.289       .  A
C29         O487   1.287       .  A
C29         C178   1.502       .  S
O30         Zr33   2.466       .  S
O30         C952   1.292       .  A
O31         Zr39   2.422       .  S
O31          C32   1.286       .  A
C32         O950   1.288   1_455  A
C32         C147   1.486       .  S
Zr33         O34   2.435       .  S
Zr33         O35   2.436       .  S
Zr33         O41   2.372       .  S
Zr33         O42   2.374   1_554  S
Zr33        O965   2.379       .  S
Zr33        O503   2.384   1_545  S
O34          H54   0.989       .  S
O34          H59   0.990       .  S
O35          H55   0.990       .  S
Zr36         O37   2.435       .  S
Zr36         O38   2.430       .  S
Zr36        O272   2.370       .  S
Zr36        O271   2.374       .  S
Zr36        O506   2.380   1_545  S
Zr36        O964   2.374       .  S
O37          H53   0.990       .  S
O38          H52   0.990       .  S
O38          H62   0.989       .  S
Zr39        O238   2.417   1_554  S
Zr39        O255   2.420   1_554  S
Zr39         O45   2.378       .  S
Zr39        O709   2.382   1_544  S
Zr39        O962   2.374   1_455  S
Zr39        O274   2.380   1_554  S
Zr40        O241   2.430       .  S
Zr40        O252   2.438       .  S
Zr40         O46   2.384       .  S
Zr40        O940   2.384       .  S
Zr40        O731   2.379       .  S
Zr40        O273   2.377       .  S
O41        Zr266   2.378   1_554  S
O41        Zr730   2.383   1_544  S
O41          H49   0.967       .  S
O42        Zr266   2.375       .  S
O42        Zr959   2.376       .  S
O43        Zr933   2.372       .  S
O43        Zr493   2.377       .  S
O43        Zr270   2.375   1_554  S
O44        Zr476   2.383   1_545  S
O44        Zr956   2.369   1_455  S
O44        Zr269   2.385       .  S
O44          H48   0.967       .  S
O45        Zr473   2.372   1_545  S
O45        Zr953   2.378   1_455  S
O45          H50   0.968       .  S
O46        Zr936   2.384       .  S
O46        Zr496   2.379       .  S
N63          C67   1.366       .  A
N63          C64   1.363       .  A
N63         C105   1.450       .  S
C64         C164   1.493       .  S
C64          C65   1.381       .  A
C65          C66   1.370       .  A
C65          H68   1.082       .  S
C66          C67   1.380       .  A
C66          H69   1.082       .  S
C67         C150   1.498       .  S
N70          C74   1.363       .  A
N70          C71   1.368       .  A
N70         C108   1.450       .  S
C71         C136   1.499       .  S
C71          C72   1.380       .  A
C72          C73   1.368       .  A
C72          H75   1.082       .  S
C73          C74   1.383       .  A
C73          H76   1.082       .  S
C74         C119   1.494       .  S
N77          C81   1.363       .  A
N77          C78   1.372       .  A
N77          C91   1.453       .  S
C78         C203   1.506       .  S
C78          C79   1.383       .  A
C79          C80   1.368       .  A
C79          H82   1.082       .  S
C80          C81   1.378       .  A
C80          H83   1.082       .  S
C81         C220   1.489       .  S
N84          C88   1.363       .  A
N84          C85   1.358       .  A
N84          C94   1.446       .  S
C85         C175   1.489       .  S
C85          C86   1.382       .  A
C86          C87   1.372       .  A
C86          H89   1.082       .  S
C87          C88   1.381       .  A
C87          H90   1.083       .  S
C88         C189   1.492       .  S
C91          C92   1.415       .  A
C91          C96   1.416       .  A
C92          C93   1.411       .  A
C92          C97   1.445       .  S
C93          C94   1.410       .  A
C93         C100   1.450       .  S
C94          C95   1.406       .  A
C95          C96   1.413       .  A
C95          C98   1.446       .  S
C96          C99   1.447       .  S
C97         N104   1.157       .  T
C98         N103   1.157       .  T
C99         N101   1.157       .  T
C100        N102   1.157       .  T
C105        C110   1.415       .  A
C105       C1026   1.409   1_455  A
C106        C107   1.414       .  A
C106       C1025   1.408       .  A
C106        C111   1.446       .  S
C107       C1028   1.415       .  A
C107        C114   1.447       .  S
C108        C109   1.409   1_655  A
C108       C1027   1.414       .  A
C109        C110   1.413       .  A
C109        C112   1.446       .  S
C110        C113   1.447       .  S
C111        N118   1.157       .  T
C112        N117   1.157       .  T
C113        N115   1.157       .  T
C114        N116   1.157       .  T
C119        C124   1.413   1_655  A
C119       C1040   1.409       .  A
C120        C121   1.417       .  A
C120       C1039   1.409       .  A
C120        C125   1.449       .  S
C121       C1042   1.420       .  A
C121        C128   1.449       .  S
C122        C123   1.421   1_655  A
C122       C1041   1.422       .  A
C123        C124   1.410       .  A
C123        C126   1.451       .  S
C124        C127   1.454       .  S
C125        N132   1.157       .  T
C126        N131   1.157       .  T
C127        N129   1.157       .  T
C128        N130   1.157       .  T
C133        C926   1.496       .  S
C133        C134   1.413   1_655  A
C133       C1058   1.412       .  A
C134        C135   1.418       .  A
C134        C139   1.450       .  S
C135        C136   1.417   1_455  A
C135        C142   1.448       .  S
C136       C1057   1.417       .  A
C137        C138   1.413       .  A
C137       C1056   1.418       .  A
C137        C140   1.450       .  S
C138       C1053   1.411       .  A
C138        C141   1.452       .  S
C139        N146   1.157       .  T
C140        N145   1.157       .  T
C141        N143   1.157       .  T
C142        N144   1.156       .  T
C147        C148   1.409       .  A
C147       C1072   1.409   1_455  A
C148        C149   1.412       .  A
C148        C153   1.453       .  S
C149        C150   1.418       .  A
C149        C156   1.449       .  S
C150       C1071   1.418   1_455  A
C151        C152   1.418       .  A
C151       C1070   1.419       .  A
C151        C154   1.445       .  S
C152       C1067   1.410       .  A
C152        C155   1.452       .  S
C153        N160   1.157       .  T
C154        N159   1.156       .  T
C155        N387   1.157       .  T
C156        N158   1.157       .  T
N157        C385   1.157       .  T
C161        C932   1.515       .  S
C161        C166   1.425       .  A
C161       C1082   1.424   1_455  A
C162        C163   1.410       .  A
C162       C1081   1.422       .  A
C162        C167   1.452       .  S
C163       C1084   1.412       .  A
C163        C170   1.451       .  S
C164        C165   1.406       .  A
C164       C1083   1.412   1_455  A
C165        C166   1.419       .  A
C165        C168   1.450       .  S
C166        C169   1.449       .  S
C167        N174   1.157   1_554  T
C168        N173   1.157       .  T
C169        N171   1.157       .  T
C170        N172   1.156       .  T
C175        C176   1.409       .  A
C175        C180   1.410       .  A
C176        C177   1.417       .  A
C176        C181   1.450       .  S
C177        C178   1.425       .  A
C177        C184   1.451       .  S
C178        C179   1.419       .  A
C179        C180   1.405       .  A
C179        C182   1.453       .  S
C180        C183   1.448       .  S
C181        N188   1.157       .  T
C182        N417   1.157       .  T
C183        N185   1.155       .  T
C184        N646   1.158       .  T
N186        C644   1.157       .  T
N187        C412   1.157   1_554  T
C189        C194   1.418       .  A
C189        C650   1.415       .  A
C190        C191   1.412       .  A
C190        C649   1.419       .  A
C190        C195   1.448       .  S
C191        C652   1.406   1_545  A
C191        C198   1.453       .  S
C192        C469   1.477       .  S
C192        C193   1.406       .  A
C192        C651   1.406       .  A
C193        C194   1.412       .  A
C193        C196   1.453       .  S
C194        C197   1.445       .  S
C195        N202   1.157       .  T
C196        N201   1.157       .  T
C197        N199   1.156       .  T
C198        N200   1.157       .  T
C203        C204   1.420       .  A
C203        C668   1.418       .  A
C204        C205   1.416       .  A
C204        C209   1.450       .  S
C205        C206   1.412       .  A
C205        C212   1.451       .  S
C206        C667   1.412       .  A
C207        C208   1.417       .  A
C207        C666   1.410   1_545  A
C207        C210   1.452       .  S
C208        C663   1.418   1_545  A
C208        C211   1.445       .  S
C209        N216   1.157       .  T
C210        N215   1.157       .  T
C211        N213   1.156       .  T
C212        N214   1.157       .  T
C217        C463   1.507       .  S
C217        C222   1.425       .  A
C217        C678   1.422       .  A
C218        C219   1.407   1_545  A
C218        C677   1.422   1_545  A
C218        C223   1.454       .  S
C219        C680   1.410       .  A
C219        C226   1.451   1_565  S
C220        C221   1.408       .  A
C220        C679   1.411       .  A
C221        C222   1.417       .  A
C221        C224   1.450       .  S
C222        C225   1.451       .  S
C223        N230   1.158       .  T
C224        N229   1.157       .  T
C225        N457   1.157       .  T
C226        N228   1.156       .  T
N227        C455   1.157       .  T
O231       Zr243   2.460       .  S
O231        C693   1.292       .  A
O232       Zr269   2.420       .  S
O232        C233   1.286   1_545  A
C233        O691   1.292       .  A
C233        C907   1.506       .  S
O234       Zr246   2.458       .  S
O234       C1156   1.290   1_455  A
O235       Zr270   2.420       .  S
O235        C236   1.285       .  A
C236       O1154   1.291       .  A
C236       C1283   1.491       .  S
O237       Zr246   2.459       .  S
O237        C699   1.291       .  A
O238        C239   1.286       .  A
C239        O697   1.291   1_545  A
C239        C882   1.489       .  S
O240       Zr243   2.471       .  S
O240       C1162   1.294       .  A
O241        C242   1.288       .  A
C242       O1160   1.292       .  A
C242       C1311   1.510       .  S
Zr243       O244   2.435       .  S
Zr243       O245   2.432       .  S
Zr243      O1193   2.375   1_455  S
Zr243       O735   2.376       .  S
O244        H287   0.990       .  S
O245        H286   0.989       .  S
O245        H290   0.990       .  S
Zr246       O247   2.435       .  S
Zr246       O248   2.435       .  S
Zr246       O250   2.375       .  S
Zr246       O249   2.371       .  S
Zr246       O734   2.379       .  S
Zr246      O1196   2.380   1_455  S
O247        H288   0.990       .  S
O247        H291   0.990       .  S
O248        H281   0.990       .  S
O249       Zr499   2.380       .  S
O250      Zr1190   2.381   1_455  S
O250        H277   0.967       .  S
O251       Zr263   2.462       .  S
O251        C713   1.291   1_545  A
O252        C253   1.290       .  A
C253        O711   1.287       .  A
C253        C436   1.492       .  S
O254       Zr266   2.458       .  S
O254       C1176   1.291       .  A
O255        C256   1.285   1_455  A
C256       O1174   1.292       .  A
C256        C352   1.505       .  S
O257       Zr266   2.463       .  S
O257        C719   1.292   1_545  A
O258       Zr270   2.413       .  S
O258        C259   1.285       .  A
C259        O717   1.293       .  A
C259        C408   1.503       .  S
O260       Zr263   2.466       .  S
O260       C1182   1.292       .  A
O261       Zr269   2.446       .  S
O261        C262   1.291       .  A
C262       O1180   1.288   1_455  A
C262        C377   1.495       .  S
Zr263       O264   2.432       .  S
Zr263       O265   2.436       .  S
Zr263       O271   2.374       .  S
Zr263       O272   2.375       .  S
Zr263      O1195   2.377       .  S
Zr263       O733   2.385   1_545  S
O264        H284   0.990       .  S
O264        H289   0.990       .  S
O265        H285   0.990       .  S
Zr266       O267   2.434       .  S
Zr266       O268   2.434       .  S
Zr266       O736   2.375   1_545  S
Zr266      O1194   2.373       .  S
O267        H283   0.990       .  S
O268        H282   0.990       .  S
O268        H292   0.989       .  S
Zr269       O479   2.384   1_545  S
Zr269      O1192   2.377   1_455  S
Zr269       O275   2.386       .  S
Zr270      O1170   2.378       .  S
Zr270       O501   2.383   1_556  S
Zr270       O276   2.383       .  S
O271       Zr500   2.378   1_545  S
O271        H279   0.967       .  S
O272      Zr1189   2.369       .  S
O273      Zr1163   2.374       .  S
O273       Zr723   2.376       .  S
O274       Zr706   2.381   1_545  S
O274      Zr1186   2.363   1_455  S
O274        H278   0.965       .  S
O275       Zr703   2.379   1_545  S
O275      Zr1183   2.387   1_455  S
O275        H280   0.966       .  S
O276      Zr1166   2.379       .  S
O276       Zr726   2.383       .  S
N293        C297   1.370       .  A
N293        C294   1.366       .  A
N293        C335   1.452       .  S
C294        C394   1.497       .  S
C294        C295   1.382       .  A
C295        C296   1.368       .  A
C295        H298   1.082       .  S
C296        C297   1.379       .  A
C296        H299   1.082       .  S
C297        C380   1.501       .  S
N300        C304   1.361       .  A
N300        C301   1.365       .  A
N300        C338   1.449       .  S
C301        C366   1.497       .  S
C301        C302   1.380       .  A
C302        C303   1.372       .  A
C302        H305   1.082       .  S
C303        C304   1.383       .  A
C303        H306   1.082       .  S
C304        C349   1.492       .  S
N307        C311   1.360       .  A
N307        C308   1.368       .  A
N307        C321   1.453       .  S
C308        C433   1.496       .  S
C308        C309   1.382       .  A
C309        C310   1.367       .  A
C309        H312   1.082       .  S
C310        C311   1.378       .  A
C310        H313   1.082       .  S
C311        C450   1.481       .  S
N314        C318   1.367       .  A
N314        C315   1.360       .  A
N314        C324   1.448       .  S
C315        C405   1.489       .  S
C315        C316   1.381       .  A
C316        C317   1.370       .  A
C316        H319   1.082       .  S
C317        C318   1.382       .  A
C317        H320   1.082       .  S
C318        C419   1.498       .  S
C321        C322   1.414       .  A
C321        C326   1.415       .  A
C322        C323   1.410       .  A
C322        C327   1.445       .  S
C323        C324   1.410       .  A
C323        C330   1.448       .  S
C324        C325   1.409       .  A
C325        C326   1.413       .  A
C325        C328   1.447       .  S
C326        C329   1.447       .  S
C327        N334   1.157       .  T
C328        N333   1.157       .  T
C329        N331   1.156       .  T
C330        N332   1.157       .  T
C335       C1256   1.410   1_455  A
C335        C340   1.416       .  A
C336       C1255   1.407       .  A
C336        C337   1.412       .  A
C336        C341   1.445       .  S
C337       C1258   1.414       .  A
C337        C344   1.448       .  S
C338       C1257   1.412       .  A
C338        C339   1.409   1_655  A
C339        C340   1.414       .  A
C339        C342   1.447       .  S
C340        C343   1.447       .  S
C341        N348   1.157       .  T
C342        N347   1.157       .  T
C343        N345   1.157       .  T
C344        N346   1.157       .  T
C349       C1270   1.408       .  A
C349        C354   1.412   1_655  A
C350       C1269   1.410       .  A
C350        C351   1.419       .  A
C350        C355   1.449       .  S
C351       C1272   1.421       .  A
C351        C358   1.451       .  S
C352       C1271   1.420       .  A
C352        C353   1.420   1_655  A
C353        C354   1.410       .  A
C353        C356   1.452       .  S
C354        C357   1.449       .  S
C355        N362   1.157       .  T
C356        N361   1.157   1_556  T
C357        N359   1.155       .  T
C358        N360   1.157       .  T
C363       C1156   1.485       .  S
C363        C364   1.409   1_655  A
C363       C1288   1.409       .  A
C364        C365   1.413       .  A
C364        C369   1.452       .  S
C365        C366   1.417   1_455  A
C365        C372   1.446       .  S
C366       C1287   1.419       .  A
C367       C1286   1.418       .  A
C367        C368   1.416       .  A
C367        C370   1.449       .  S
C368       C1283   1.411       .  A
C368        C371   1.452       .  S
C369        N376   1.157       .  T
C370        N375   1.157       .  T
C371        N373   1.157       .  T
C372        N374   1.156       .  T
C377        C378   1.409       .  A
C377       C1302   1.412   1_455  A
C378        C379   1.415       .  A
C378        C383   1.452       .  S
C379        C380   1.419       .  A
C379        C386   1.448       .  S
C380       C1301   1.417   1_455  A
C381       C1300   1.419       .  A
C381        C382   1.419       .  A
C381        C384   1.446       .  S
C382       C1297   1.412       .  A
C382        C385   1.451       .  S
C383        N390   1.157       .  T
C384        N389   1.156       .  T
C386        N388   1.157       .  T
C391       C1162   1.514       .  S
C391       C1312   1.423   1_455  A
C391        C396   1.424       .  A
C392       C1311   1.421       .  A
C392        C393   1.410       .  A
C392        C397   1.450       .  S
C393       C1314   1.412       .  A
C393        C400   1.452       .  S
C394       C1313   1.413       .  A
C394        C395   1.409       .  A
C395        C396   1.422       .  A
C395        C398   1.449       .  S
C396        C399   1.449       .  S
C397        N404   1.156       .  T
C398        N403   1.157       .  T
C399        N401   1.157       .  T
C400        N402   1.156       .  T
C405        C406   1.409       .  A
C405        C410   1.410       .  A
C406        C407   1.416       .  A
C406        C411   1.448       .  S
C407        C408   1.420       .  A
C407        C414   1.450       .  S
C408        C409   1.423       .  A
C409        C410   1.408       .  A
C409        C412   1.452       .  S
C410        C413   1.453       .  S
C411        N418   1.157       .  T
C413        N415   1.156       .  T
C414        N876   1.157       .  T
N416        C874   1.157       .  T
C419        C880   1.418       .  A
C419        C424   1.418       .  A
C420        C879   1.419       .  A
C420        C421   1.412       .  A
C420        C425   1.450       .  S
C421        C882   1.410       .  A
C421        C428   1.452       .  S
C422        C699   1.486       .  S
C422        C881   1.409       .  A
C422        C423   1.408       .  A
C423        C424   1.415       .  A
C423        C426   1.452       .  S
C424        C427   1.445       .  S
C425        N432   1.157       .  T
C426        N431   1.157       .  T
C427        N429   1.156       .  T
C428        N430   1.157       .  T
C433        C434   1.418       .  A
C433        C898   1.418       .  A
C434        C435   1.412       .  A
C434        C439   1.449       .  S
C435        C436   1.408       .  A
C435        C442   1.451       .  S
C436        C897   1.411       .  A
C437        C896   1.412   1_545  A
C437        C438   1.419       .  A
C437        C440   1.451       .  S
C438        C893   1.418   1_545  A
C438        C441   1.446       .  S
C439        N446   1.157       .  T
C440        N445   1.157       .  T
C441        N443   1.156       .  T
C442        N444   1.157       .  T
C447        C693   1.493       .  S
C447        C908   1.421       .  A
C447        C452   1.417       .  A
C448        C907   1.423       .  A
C448        C449   1.408       .  A
C448        C453   1.452   1_565  S
C449        C910   1.410       .  A
C449        C456   1.453   1_565  S
C450        C909   1.412       .  A
C450        C451   1.407       .  A
C451        C452   1.410       .  A
C451        C454   1.448       .  S
C452        C455   1.450       .  S
C453        N460   1.157       .  T
C454        N459   1.157       .  T
C456        N458   1.156       .  T
O461       Zr473   2.453       .  S
O462       Zr499   2.427   1_554  S
O462        C463   1.287       .  A
O464       Zr476   2.456       .  S
O464       C1386   1.289   1_455  A
O465       Zr500   2.422       .  S
O465        C466   1.286       .  A
C466       O1384   1.292       .  A
C466       C1513   1.493       .  S
O467       Zr476   2.441       .  S
O468       Zr729   2.414       .  S
O468        C469   1.284       .  A
O470       Zr473   2.455       .  S
O470       C1392   1.291       .  A
O471       Zr730   2.418   1_554  S
O471        C472   1.284       .  A
C472       O1390   1.292       .  A
C472       C1541   1.514       .  S
Zr473       O474   2.434       .  S
Zr473       O475   2.432       .  S
Zr473       O709   2.377   1_554  S
Zr473       O710   2.378   1_554  S
Zr473      O1423   2.373   1_455  S
O474        H517   0.990       .  S
O475        H516   0.989       .  S
O475        H520   0.990       .  S
Zr476       O477   2.433       .  S
Zr476       O478   2.435       .  S
Zr476       O480   2.368       .  S
Zr476       O479   2.386       .  S
Zr476      O1426   2.370   1_455  S
O477        H518   0.990       .  S
O477        H521   0.989       .  S
O478        H511   0.990       .  S
O479       Zr703   2.379       .  S
O480       Zr703   2.374       .  S
O480      Zr1420   2.373   1_455  S
O480        H507   0.966       .  S
O481       Zr493   2.471       .  S
O482       Zr730   2.420   1_554  S
O482        C483   1.286       .  A
C483        C666   1.494       .  S
O484       Zr496   2.459       .  S
O484       C1406   1.291       .  A
O485       Zr729   2.419       .  S
O485        C486   1.285   1_455  A
C486       O1404   1.291       .  A
C486        C582   1.509       .  S
O487       Zr496   2.440       .  S
O488       Zr500   2.419       .  S
O488        C489   1.285       .  A
C489        C638   1.509       .  S
O490       Zr493   2.454       .  S
O490       C1412   1.289       .  A
O491       Zr499   2.416   1_554  S
O491        C492   1.285       .  A
C492       O1410   1.292   1_455  A
C492        C607   1.493       .  S
Zr493       O494   2.432       .  S
Zr493       O495   2.435       .  S
Zr493       O501   2.373       .  S
Zr493       O502   2.383       .  S
Zr493      O1425   2.378       .  S
O494        H514   0.990       .  S
O494        H519   0.990       .  S
O495        H515   0.990       .  S
Zr496       O497   2.434       .  S
Zr496       O498   2.437       .  S
Zr496       O732   2.373       .  S
Zr496       O731   2.382       .  S
Zr496      O1424   2.370       .  S
O497        H513   0.990       .  S
O498        H512   0.990       .  S
O498        H522   0.990       .  S
Zr499       O698   2.410       .  S
Zr499       O715   2.436       .  S
Zr499      O1422   2.375   1_456  S
Zr499       O734   2.382       .  S
Zr499       O505   2.384   1_556  S
Zr500       O701   2.420       .  S
Zr500       O712   2.425       .  S
Zr500      O1400   2.381       .  S
Zr500       O733   2.380       .  S
Zr500       O506   2.380       .  S
O501       Zr726   2.383   1_554  S
O501        H509   0.967       .  S
O502       Zr726   2.375   1_554  S
O502      Zr1419   2.377   1_554  S
O503      Zr1393   2.372       .  S
O503       Zr730   2.377   1_554  S
O504      Zr1416   2.368   1_455  S
O504       Zr729   2.379       .  S
O504        H508   0.966       .  S
O505      Zr1413   2.373   1_455  S
O505        H510   0.967       .  S
O506      Zr1396   2.383       .  S
N523        C527   1.369       .  A
N523        C524   1.363       .  A
N523        C565   1.453       .  S
C524        C624   1.490       .  S
C524        C525   1.381       .  A
C525        C526   1.367       .  A
C525        H528   1.083       .  S
C526        C527   1.381       .  A
C526        H529   1.082       .  S
C527        C610   1.501       .  S
N530        C534   1.363       .  A
N530        C531   1.368       .  A
N530        C568   1.456       .  S
C531        C596   1.496       .  S
C531        C532   1.380       .  A
C532        C533   1.367       .  A
C532        H535   1.082       .  S
C533        C534   1.381       .  A
C533        H536   1.082       .  S
C534        C579   1.490       .  S
N537        C541   1.361       .  A
N537        C538   1.371       .  A
N537        C551   1.453       .  S
C538        C663   1.502       .  S
C538        C539   1.382       .  A
C539        C540   1.369       .  A
C539        H542   1.083       .  S
C540        C541   1.379       .  A
C540        H543   1.082       .  S
C541        C680   1.487       .  S
N544        C548   1.368       .  A
N544        C545   1.362       .  A
N544        C554   1.452       .  S
C545        C635   1.491       .  S
C545        C546   1.380       .  A
C546        C547   1.369       .  A
C546        H549   1.082       .  S
C547        C548   1.381       .  A
C547        H550   1.082       .  S
C548        C649   1.496       .  S
C551        C552   1.413   1_565  A
C551        C556   1.415       .  A
C552        C553   1.414       .  A
C552        C557   1.445       .  S
C553        C554   1.412       .  A
C553        C560   1.447       .  S
C554        C555   1.410   1_545  A
C555        C556   1.415       .  A
C555        C558   1.445       .  S
C556        C559   1.447       .  S
C557        N564   1.157       .  T
C558        N563   1.157       .  T
C559        N561   1.157       .  T
C560        N562   1.157       .  T
C565       C1486   1.409   1_455  A
C565        C570   1.414       .  A
C566       C1485   1.411       .  A
C566        C567   1.412       .  A
C566        C571   1.445       .  S
C567       C1488   1.412       .  A
C567        C574   1.448       .  S
C568       C1487   1.417       .  A
C568        C569   1.412   1_655  A
C569        C570   1.416       .  A
C569        C572   1.446       .  S
C570        C573   1.448       .  S
C571        N578   1.157       .  T
C572        N577   1.157       .  T
C573        N575   1.157       .  T
C574        N576   1.157       .  T
C579       C1500   1.407       .  A
C579        C584   1.412   1_655  A
C580       C1499   1.408       .  A
C580        C581   1.417       .  A
C580        C585   1.449       .  S
C581       C1502   1.422       .  A
C581        C588   1.450       .  S
C582       C1501   1.423       .  A
C582        C583   1.423   1_655  A
C583        C584   1.410       .  A
C583        C586   1.453       .  S
C584        C587   1.451       .  S
C585        N592   1.157       .  T
C586        N591   1.158       .  T
C587        N589   1.156       .  T
C588        N590   1.157       .  T
C593       C1386   1.487       .  S
C593        C594   1.410   1_655  A
C593       C1518   1.410       .  A
C594        C595   1.414       .  A
C594        C599   1.452       .  S
C595        C596   1.418   1_455  A
C595        C602   1.447       .  S
C596       C1517   1.419       .  A
C597       C1516   1.419       .  A
C597        C598   1.415       .  A
C597        C600   1.449       .  S
C598       C1513   1.411       .  A
C598        C601   1.452       .  S
C599        N606   1.157       .  T
C600        N605   1.157       .  T
C601        N603   1.157       .  T
C602        N604   1.156       .  T
C607        C608   1.412       .  A
C607       C1532   1.411   1_455  A
C608        C609   1.414       .  A
C608        C613   1.452       .  S
C609        C610   1.418       .  A
C609        C616   1.450       .  S
C610       C1531   1.418   1_455  A
C611       C1530   1.417       .  A
C611        C612   1.415       .  A
C611        C614   1.446       .  S
C612       C1527   1.411       .  A
C612        C615   1.452       .  S
C613        N620   1.157       .  T
C614        N619   1.156       .  T
C615        N847   1.157       .  T
C616        N618   1.157       .  T
N617        C845   1.157       .  T
C621       C1392   1.504       .  S
C621       C1542   1.420   1_455  A
C621        C626   1.422       .  A
C622       C1541   1.427       .  A
C622        C623   1.409       .  A
C622        C627   1.453       .  S
C623       C1544   1.410       .  A
C623        C630   1.454       .  S
C624       C1543   1.411   1_455  A
C624        C625   1.408       .  A
C625        C626   1.417       .  A
C625        C628   1.449       .  S
C626        C629   1.449       .  S
C627        N634   1.158   1_554  T
C628        N633   1.157       .  T
C629        N631   1.157       .  T
C630        N632   1.157       .  T
C635        C636   1.408       .  A
C635        C640   1.412   1_545  A
C636        C637   1.417       .  A
C636        C641   1.449       .  S
C637        C638   1.423   1_545  A
C637        C644   1.450       .  S
C638        C639   1.424       .  A
C639        C640   1.409       .  A
C639        C642   1.454       .  S
C640        C643   1.453       .  S
C641        N648   1.157       .  T
C642        N877   1.158       .  T
C643        N645   1.156       .  T
N647        C872   1.157   1_554  T
C649        C654   1.419   1_545  A
C650        C651   1.411       .  A
C650        C655   1.446       .  S
C651        C658   1.452       .  S
C652        C653   1.408       .  A
C653        C654   1.415       .  A
C653        C656   1.452       .  S
C654        C657   1.447       .  S
C655        N662   1.157       .  T
C656        N661   1.157       .  T
C657        N659   1.156       .  T
C658        N660   1.157       .  T
C663        C664   1.420       .  A
C664        C665   1.416       .  A
C664        C669   1.449       .  S
C665        C666   1.410       .  A
C665        C672   1.451       .  S
C667        C668   1.420       .  A
C667        C670   1.450       .  S
C668        C671   1.445       .  S
C669        N676   1.157       .  T
C670        N675   1.157       .  T
C671        N673   1.156       .  T
C672        N674   1.157       .  T
C677        C682   1.422       .  A
C678        C679   1.409       .  A
C678        C683   1.453       .  S
C679        C686   1.453       .  S
C680        C681   1.409       .  A
C681        C682   1.416       .  A
C681        C684   1.450       .  S
C682        C685   1.451       .  S
C683        N690   1.157   1_554  T
C684        N689   1.157       .  T
C685        N917   1.157       .  T
C686        N688   1.157       .  T
N687        C915   1.157       .  T
O691       Zr703   2.464       .  S
O692       Zr729   2.391       .  S
O692        C693   1.279       .  A
O694       Zr706   2.475       .  S
O694       C1616   1.293   1_455  A
O695       Zr730   2.422       .  S
O695        C696   1.286       .  A
C696       O1614   1.292       .  A
C696       C1743   1.495       .  S
O697       Zr706   2.462       .  S
O698        C699   1.284       .  A
O700       Zr703   2.471       .  S
O700       C1622   1.294       .  A
O701        C702   1.285       .  A
C702       O1620   1.291       .  A
C702       C1771   1.508       .  S
Zr703       O704   2.435       .  S
Zr703       O705   2.434       .  S
Zr703      O1653   2.374   1_455  S
O704        H747   0.990       .  S
O705        H746   0.990       .  S
O705        H750   0.989       .  S
Zr706       O707   2.432       .  S
Zr706       O708   2.435       .  S
Zr706       O710   2.373       .  S
Zr706       O709   2.385       .  S
Zr706      O1656   2.374   1_455  S
O707        H748   0.990       .  S
O707        H751   0.990       .  S
O708        H741   0.990       .  S
O710      Zr1650   2.378   1_455  S
O710        H737   0.966       .  S
O711       Zr723   2.444       .  S
O712        C713   1.287       .  A
C713        C896   1.494       .  S
O714       Zr726   2.479       .  S
O714       C1636   1.295       .  A
O715        C716   1.288   1_455  A
C716       O1634   1.292       .  A
C716        C812   1.520       .  S
O717       Zr726   2.463       .  S
O718       Zr730   2.408       .  S
O718        C719   1.283       .  A
C719        C868   1.500       .  S
O720       Zr723   2.435       .  S
O720       C1642   1.285       .  A
O721       Zr729   2.432       .  S
O721        C722   1.288       .  A
C722       O1640   1.288   1_455  A
C722        C837   1.491       .  S
Zr723       O724   2.432       .  S
Zr723       O725   2.435       .  S
Zr723       O731   2.367       .  S
Zr723       O732   2.377       .  S
Zr723      O1655   2.376       .  S
O724        H744   0.990       .  S
O724        H749   0.989       .  S
O725        H745   0.990       .  S
Zr726       O727   2.435       .  S
Zr726       O728   2.434       .  S
Zr726      O1654   2.371       .  S
O727        H743   0.990       .  S
O728        H742   0.990       .  S
O728        H752   0.990       .  S
Zr729      O1652   2.364   1_455  S
Zr729       O735   2.383       .  S
Zr730      O1630   2.376       .  S
Zr730       O736   2.380       .  S
O731        H739   0.967       .  S
O732      Zr1649   2.372       .  S
O733      Zr1623   2.373       .  S
O734      Zr1646   2.367   1_455  S
O734        H738   0.965       .  S
O735      Zr1643   2.374   1_455  S
O735        H740   0.965       .  S
O736      Zr1626   2.381       .  S
N753        C757   1.367       .  A
N753        C754   1.363       .  A
N753        C795   1.450       .  S
C754        C854   1.491       .  S
C754        C755   1.382       .  A
C755        C756   1.369       .  A
C755        H758   1.082       .  S
C756        C757   1.379       .  A
C756        H759   1.082       .  S
C757        C840   1.499       .  S
N760        C764   1.367       .  A
N760        C761   1.369       .  A
N760        C798   1.451       .  S
C761        C826   1.506       .  S
C761        C762   1.381       .  A
C762        C763   1.373       .  A
C762        H765   1.082       .  S
C763        C764   1.382       .  A
C763        H766   1.082       .  S
C764        C809   1.504       .  S
N767        C771   1.362       .  A
N767        C768   1.370       .  A
N767        C781   1.452       .  S
C768        C893   1.502       .  S
C768        C769   1.382       .  A
C769        C770   1.367       .  A
C769        H772   1.083       .  S
C770        C771   1.380       .  A
C770        H773   1.082       .  S
C771        C910   1.489       .  S
N774        C778   1.368       .  A
N774        C775   1.360       .  A
N774        C784   1.452       .  S
C775        C865   1.487       .  S
C775        C776   1.381       .  A
C776        C777   1.368       .  A
C776        H779   1.082       .  S
C777        C778   1.382       .  A
C777        H780   1.082       .  S
C778        C879   1.499       .  S
C781        C782   1.412   1_565  A
C781        C786   1.414       .  A
C782        C783   1.413       .  A
C782        C787   1.446       .  S
C783        C784   1.413       .  A
C783        C790   1.448       .  S
C784        C785   1.413   1_545  A
C785        C786   1.413       .  A
C785        C788   1.447       .  S
C786        C789   1.447       .  S
C787        N794   1.157       .  T
C788        N793   1.157       .  T
C789        N791   1.156       .  T
C790        N792   1.156       .  T
C795       C1716   1.409   1_455  A
C795        C800   1.413       .  A
C796       C1715   1.411       .  A
C796        C797   1.415       .  A
C796        C801   1.446       .  S
C797       C1718   1.415       .  A
C797        C804   1.448       .  S
C798       C1717   1.416       .  A
C798        C799   1.408   1_655  A
C799        C800   1.412       .  A
C799        C802   1.445       .  S
C800        C803   1.447       .  S
C801        N808   1.157       .  T
C802        N807   1.157       .  T
C803        N805   1.157       .  T
C804        N806   1.157       .  T
C809       C1730   1.411       .  A
C809        C814   1.415   1_655  A
C810       C1729   1.410       .  A
C810        C811   1.423       .  A
C810        C815   1.449       .  S
C811       C1732   1.424       .  A
C811        C818   1.449       .  S
C812       C1731   1.424       .  A
C812        C813   1.422   1_655  A
C813        C814   1.413       .  A
C813        C816   1.453       .  S
C814        C817   1.451       .  S
C815        N822   1.157       .  T
C816        N821   1.158       .  T
C817        N819   1.156       .  T
C818        N820   1.157       .  T
C823       C1616   1.499       .  S
C823        C824   1.410   1_655  A
C823       C1748   1.412       .  A
C824        C825   1.417       .  A
C824        C829   1.451       .  S
C825        C826   1.418   1_455  A
C825        C832   1.446       .  S
C826       C1747   1.419       .  A
C827       C1746   1.420       .  A
C827        C828   1.414       .  A
C827        C830   1.450       .  S
C828       C1743   1.411       .  A
C828        C831   1.452       .  S
C829        N836   1.157       .  T
C830        N835   1.157       .  T
C831        N833   1.157       .  T
C832        N834   1.156       .  T
C837        C838   1.409       .  A
C837       C1762   1.411   1_455  A
C838        C839   1.413       .  A
C838        C843   1.451       .  S
C839        C840   1.418       .  A
C839        C846   1.449       .  S
C840       C1761   1.418   1_455  A
C841       C1760   1.417       .  A
C841        C842   1.412       .  A
C841        C844   1.447       .  S
C842       C1757   1.409       .  A
C842        C845   1.453       .  S
C843        N850   1.157       .  T
C844        N849   1.156       .  T
C846        N848   1.157       .  T
C851       C1622   1.510       .  S
C851       C1772   1.424   1_455  A
C851        C856   1.421       .  A
C852       C1771   1.425       .  A
C852        C853   1.409       .  A
C852        C857   1.452       .  S
C853       C1774   1.410       .  A
C853        C860   1.455       .  S
C854       C1773   1.411   1_455  A
C854        C855   1.409       .  A
C855        C856   1.418       .  A
C855        C858   1.449       .  S
C856        C859   1.450       .  S
C857        N864   1.157       .  T
C858        N863   1.157       .  T
C859        N861   1.157       .  T
C860        N862   1.157       .  T
C865        C866   1.409       .  A
C865        C870   1.411   1_545  A
C866        C867   1.415       .  A
C866        C871   1.449       .  S
C867        C868   1.419   1_545  A
C867        C874   1.450       .  S
C868        C869   1.422       .  A
C869        C870   1.406       .  A
C869        C872   1.453       .  S
C870        C873   1.452       .  S
C871        N878   1.157       .  T
C873        N875   1.156       .  T
C879        C884   1.419   1_545  A
C880        C881   1.412       .  A
C880        C885   1.448       .  S
C881        C888   1.453       .  S
C882        C883   1.408   1_545  A
C883        C884   1.416       .  A
C883        C886   1.451       .  S
C884        C887   1.446       .  S
C885        N892   1.157       .  T
C886        N891   1.157       .  T
C887        N889   1.156       .  T
C888        N890   1.157       .  T
C893        C894   1.420       .  A
C894        C895   1.413       .  A
C894        C899   1.450       .  S
C895        C896   1.410       .  A
C895        C902   1.452       .  S
C897        C898   1.416       .  A
C897        C900   1.451       .  S
C898        C901   1.447       .  S
C899        N906   1.157       .  T
C900        N905   1.157       .  T
C901        N903   1.156       .  T
C902        N904   1.157       .  T
C907        C912   1.423       .  A
C908        C909   1.406       .  A
C908        C913   1.454       .  S
C909        C916   1.453       .  S
C910        C911   1.407       .  A
C911        C912   1.417       .  A
C911        C914   1.450       .  S
C912        C915   1.449       .  S
C913        N920   1.158       .  T
C914        N919   1.157       .  T
C916        N918   1.157       .  T
O921       Zr933   2.448       .  S
O921       C1383   1.289       .  A
O922       Zr959   2.418   1_554  S
O922        C923   1.285   1_545  A
C923       O1381   1.290       .  A
C923       C1597   1.502       .  S
O924       Zr936   2.463       .  S
O925       Zr960   2.428       .  S
O925        C926   1.288       .  A
O927       Zr936   2.474       .  S
O927       C1389   1.293       .  A
O928      Zr1189   2.427       .  S
O928        C929   1.287   1_545  A
C929       O1387   1.292       .  A
C929       C1572   1.494   1_565  S
O930       Zr933   2.464       .  S
O931      Zr1190   2.431   1_554  S
O931        C932   1.287   1_655  A
Zr933       O934   2.433       .  S
Zr933       O935   2.434       .  S
Zr933      O1169   2.382   1_554  S
Zr933      O1170   2.376   1_554  S
Zr933      O1425   2.372       .  S
O934        H977   0.990       .  S
O935        H976   0.989       .  S
O935        H980   0.990       .  S
Zr936       O937   2.433       .  S
Zr936       O938   2.435       .  S
Zr936       O940   2.374       .  S
Zr936       O939   2.374       .  S
Zr936      O1424   2.380       .  S
O937        H978   0.990       .  S
O937        H981   0.990       .  S
O938        H971   0.990       .  S
O939      Zr1163   2.376       .  S
O939      Zr1649   2.378       .  S
O940      Zr1163   2.374       .  S
O940        H967   0.966       .  S
O941       Zr953   2.444       .  S
O941       C1403   1.287   1_545  A
O942      Zr1190   2.432   1_554  S
O942        C943   1.288       .  A
C943       O1401   1.290       .  A
C943       C1126   1.495       .  S
O944       Zr956   2.468       .  S
O945      Zr1189   2.410       .  S
O945        C946   1.283       .  A
C946       C1042   1.505       .  S
O947       Zr956   2.451       .  S
O947       C1409   1.290   1_545  A
O948       Zr960   2.434       .  S
O948        C949   1.289       .  A
C949       O1407   1.287       .  A
C949       C1098   1.502       .  S
O950       Zr953   2.449       .  S
O951       Zr959   2.417   1_554  S
O951        C952   1.285       .  A
C952       C1067   1.494       .  S
Zr953       O954   2.432       .  S
Zr953       O955   2.435       .  S
Zr953       O961   2.370       .  S
Zr953       O962   2.377       .  S
Zr953      O1423   2.379   1_545  S
O954        H974   0.990       .  S
O954        H979   0.989       .  S
O955        H975   0.990       .  S
Zr956       O957   2.434       .  S
Zr956       O958   2.435       .  S
Zr956      O1192   2.372       .  S
Zr956      O1191   2.382       .  S
Zr956      O1426   2.381   1_545  S
O957        H973   0.990       .  S
O958        H972   0.990       .  S
O958        H982   0.990       .  S
Zr959      O1158   2.420       .  S
Zr959      O1175   2.420       .  S
Zr959      O1629   2.378   1_545  S
Zr959      O1194   2.380       .  S
Zr959       O965   2.383   1_556  S
Zr960      O1161   2.431       .  S
Zr960      O1172   2.432       .  S
Zr960      O1651   2.381       .  S
Zr960      O1193   2.378       .  S
Zr960       O966   2.380       .  S
O961      Zr1186   2.381   1_554  S
O961      Zr1650   2.382   1_544  S
O961        H969   0.967       .  S
O962      Zr1186   2.374   1_554  S
O963      Zr1413   2.382       .  S
O963      Zr1190   2.376   1_554  S
O964      Zr1396   2.380   1_545  S
O964      Zr1189   2.380       .  S
O964        H968   0.967       .  S
O965      Zr1393   2.377   1_545  S
O965        H970   0.965       .  S
O966      Zr1416   2.382       .  S
N983        C987   1.369       .  A
N983        C984   1.365       .  A
N983       C1025   1.450       .  S
C984       C1084   1.496       .  S
C984        C985   1.382       .  A
C985        C986   1.370       .  A
C985        H988   1.082       .  S
C986        C987   1.381       .  A
C986        H989   1.082       .  S
C987       C1070   1.503       .  S
N990        C994   1.364       .  A
N990        C991   1.368       .  A
N990       C1028   1.452       .  S
C991       C1056   1.499       .  S
C991        C992   1.380       .  A
C992        C993   1.368       .  A
C992        H995   1.082       .  S
C993        C994   1.381       .  A
C993        H996   1.083       .  S
C994       C1039   1.490       .  S
N997       C1001   1.363       .  A
N997        C998   1.371       .  A
N997       C1011   1.454       .  S
C998       C1123   1.500       .  S
C998        C999   1.381       .  A
C999       C1000   1.367       .  A
C999       H1002   1.082       .  S
C1000      C1001   1.379       .  A
C1000      H1003   1.082       .  S
C1001      C1140   1.489       .  S
N1004      C1008   1.368       .  A
N1004      C1005   1.360       .  A
N1004      C1014   1.449       .  S
C1005      C1095   1.489       .  S
C1005      C1006   1.381       .  A
C1006      C1007   1.371       .  A
C1006      H1009   1.082       .  S
C1007      C1008   1.382       .  A
C1007      H1010   1.082       .  S
C1008      C1109   1.501       .  S
C1011      C1012   1.414       .  A
C1011      C1016   1.415       .  A
C1012      C1013   1.413       .  A
C1012      C1017   1.445       .  S
C1013      C1014   1.412       .  A
C1013      C1020   1.449       .  S
C1014      C1015   1.410       .  A
C1015      C1016   1.414       .  A
C1015      C1018   1.447       .  S
C1016      C1019   1.446       .  S
C1017      N1024   1.157       .  T
C1018      N1023   1.157       .  T
C1019      N1021   1.156       .  T
C1020      N1022   1.157       .  T
C1025      C1030   1.414       .  A
C1026      C1027   1.412       .  A
C1026      C1031   1.445       .  S
C1027      C1034   1.447       .  S
C1028      C1029   1.410       .  A
C1029      C1030   1.414       .  A
C1029      C1032   1.446       .  S
C1030      C1033   1.448       .  S
C1031      N1038   1.157       .  T
C1032      N1037   1.157       .  T
C1033      N1035   1.157       .  T
C1034      N1036   1.157       .  T
C1039      C1044   1.413       .  A
C1040      C1041   1.419       .  A
C1040      C1045   1.449       .  S
C1041      C1048   1.450       .  S
C1042      C1043   1.422       .  A
C1043      C1044   1.409       .  A
C1043      C1046   1.453       .  S
C1044      C1047   1.453       .  S
C1045      N1052   1.157       .  T
C1046      N1051   1.157       .  T
C1047      N1049   1.157       .  T
C1048      N1050   1.157       .  T
C1053      C1054   1.413       .  A
C1054      C1055   1.418       .  A
C1054      C1059   1.452       .  S
C1055      C1056   1.418       .  A
C1055      C1062   1.447       .  S
C1057      C1058   1.414       .  A
C1057      C1060   1.450       .  S
C1058      C1061   1.452       .  S
C1059      N1066   1.157       .  T
C1060      N1065   1.157       .  T
C1061      N1063   1.157       .  T
C1062      N1064   1.156       .  T
C1067      C1068   1.411       .  A
C1068      C1069   1.414       .  A
C1068      C1073   1.452       .  S
C1069      C1070   1.418       .  A
C1069      C1076   1.449       .  S
C1071      C1072   1.415       .  A
C1071      C1074   1.446       .  S
C1072      C1075   1.452       .  S
C1073      N1080   1.157       .  T
C1074      N1079   1.156       .  T
C1075      N1307   1.157       .  T
C1076      N1078   1.157       .  T
N1077      C1305   1.157       .  T
C1081      C1086   1.422       .  A
C1082      C1083   1.412       .  A
C1082      C1087   1.453       .  S
C1083      C1090   1.451       .  S
C1084      C1085   1.410       .  A
C1085      C1086   1.421       .  A
C1085      C1088   1.449       .  S
C1086      C1089   1.450       .  S
C1087      N1094   1.158   1_554  T
C1088      N1093   1.157       .  T
C1089      N1091   1.157       .  T
C1090      N1092   1.156       .  T
C1095      C1096   1.409       .  A
C1095      C1100   1.410       .  A
C1096      C1097   1.417       .  A
C1096      C1101   1.450       .  S
C1097      C1098   1.424       .  A
C1097      C1104   1.451       .  S
C1098      C1099   1.419       .  A
C1099      C1100   1.406       .  A
C1099      C1102   1.452       .  S
C1100      C1103   1.450       .  S
C1101      N1108   1.157       .  T
C1102      N1337   1.157       .  T
C1103      N1105   1.155       .  T
C1104      N1566   1.158       .  T
N1106      C1564   1.157       .  T
N1107      C1332   1.157   1_554  T
C1109      C1570   1.417       .  A
C1109      C1114   1.419       .  A
C1110      C1569   1.420       .  A
C1110      C1111   1.414       .  A
C1110      C1115   1.450       .  S
C1111      C1572   1.410       .  A
C1111      C1118   1.452       .  S
C1112      C1389   1.491       .  S
C1112      C1571   1.411       .  A
C1112      C1113   1.410       .  A
C1113      C1114   1.418       .  A
C1113      C1116   1.452       .  S
C1114      C1117   1.446       .  S
C1115      N1122   1.157       .  T
C1116      N1121   1.157       .  T
C1117      N1119   1.156       .  T
C1118      N1120   1.157       .  T
C1123      C1124   1.420       .  A
C1123      C1588   1.418       .  A
C1124      C1125   1.414       .  A
C1124      C1129   1.450       .  S
C1125      C1126   1.410       .  A
C1125      C1132   1.451       .  S
C1126      C1587   1.411       .  A
C1127      C1586   1.410   1_545  A
C1127      C1128   1.416   1_545  A
C1127      C1130   1.452       .  S
C1128      C1583   1.419       .  A
C1128      C1131   1.446   1_565  S
C1129      N1136   1.157       .  T
C1130      N1135   1.157       .  T
C1131      N1133   1.156       .  T
C1132      N1134   1.157       .  T
C1137      C1383   1.506       .  S
C1137      C1598   1.421       .  A
C1137      C1142   1.424       .  A
C1138      C1597   1.421   1_545  A
C1138      C1139   1.406   1_545  A
C1138      C1143   1.453       .  S
C1139      C1600   1.411       .  A
C1139      C1146   1.454   1_565  S
C1140      C1599   1.412       .  A
C1140      C1141   1.407       .  A
C1141      C1142   1.417       .  A
C1141      C1144   1.450       .  S
C1142      C1145   1.450       .  S
C1143      N1150   1.157   1_554  T
C1144      N1149   1.157       .  T
C1145      N1377   1.157       .  T
C1146      N1148   1.157       .  T
N1147      C1375   1.157       .  T
O1151     Zr1163   2.458       .  S
O1151      C1613   1.291       .  A
O1152     Zr1189   2.401       .  S
O1152      C1153   1.281   1_545  A
C1153      O1611   1.289       .  A
C1153      C1827   1.496       .  S
O1154     Zr1166   2.462       .  S
O1155     Zr1190   2.417       .  S
O1155      C1156   1.286       .  A
O1157     Zr1166   2.457       .  S
O1157      C1619   1.290       .  A
O1158      C1159   1.286   1_545  A
C1159      O1617   1.291       .  A
C1159      C1802   1.492   1_565  S
O1160     Zr1163   2.464       .  S
O1161      C1162   1.288   1_655  A
Zr1163     O1164   2.435       .  S
Zr1163     O1165   2.434       .  S
Zr1163     O1655   2.371       .  S
O1164      H1207   0.990       .  S
O1165      H1206   0.989       .  S
O1165      H1210   0.990       .  S
Zr1166     O1167   2.434       .  S
Zr1166     O1168   2.435       .  S
Zr1166     O1170   2.373       .  S
Zr1166     O1169   2.379       .  S
Zr1166     O1654   2.379       .  S
O1167      H1208   0.990       .  S
O1167      H1211   0.990       .  S
O1168      H1201   0.990       .  S
O1169     Zr1419   2.380       .  S
O1170      H1197   0.966       .  S
O1171     Zr1183   2.462       .  S
O1171      C1633   1.291   1_545  A
O1172      C1173   1.289       .  A
C1173      O1631   1.289       .  A
C1173      C1356   1.494       .  S
O1174     Zr1186   2.461       .  S
O1175      C1176   1.285       .  A
C1176      C1272   1.507       .  S
O1177     Zr1186   2.448       .  S
O1177      C1639   1.289   1_545  A
O1178     Zr1190   2.421       .  S
O1178      C1179   1.286       .  A
C1179      O1637   1.288       .  A
C1179      C1328   1.497       .  S
O1180     Zr1183   2.448       .  S
O1181     Zr1189   2.429       .  S
O1181      C1182   1.288       .  A
C1182      C1297   1.498       .  S
Zr1183     O1184   2.433       .  S
Zr1183     O1185   2.435       .  S
Zr1183     O1191   2.366       .  S
Zr1183     O1192   2.377       .  S
Zr1183     O1653   2.377   1_545  S
O1184      H1204   0.990       .  S
O1184      H1209   0.989       .  S
O1185      H1205   0.990       .  S
Zr1186     O1187   2.434       .  S
Zr1186     O1188   2.433       .  S
Zr1186     O1656   2.378   1_545  S
O1187      H1203   0.990       .  S
O1188      H1202   0.990       .  S
O1188      H1212   0.989       .  S
Zr1189     O1399   2.378   1_545  S
Zr1189     O1195   2.382       .  S
Zr1190     O1421   2.386   1_556  S
Zr1190     O1196   2.384       .  S
O1191     Zr1420   2.381   1_545  S
O1191      H1199   0.967       .  S
O1193     Zr1643   2.377       .  S
O1194     Zr1626   2.377   1_545  S
O1194      H1198   0.966       .  S
O1195     Zr1623   2.375   1_545  S
O1195      H1200   0.966       .  S
O1196     Zr1646   2.374       .  S
N1213      C1217   1.369       .  A
N1213      C1214   1.363       .  A
N1213      C1255   1.448       .  S
C1214      C1314   1.496       .  S
C1214      C1215   1.382       .  A
C1215      C1216   1.370       .  A
C1215      H1218   1.082       .  S
C1216      C1217   1.380       .  A
C1216      H1219   1.082       .  S
C1217      C1300   1.505       .  S
N1220      C1224   1.362       .  A
N1220      C1221   1.366       .  A
N1220      C1258   1.448       .  S
C1221      C1286   1.500       .  S
C1221      C1222   1.381       .  A
C1222      C1223   1.372       .  A
C1222      H1225   1.082       .  S
C1223      C1224   1.383       .  A
C1223      H1226   1.082       .  S
C1224      C1269   1.494       .  S
N1227      C1231   1.363       .  A
N1227      C1228   1.371       .  A
N1227      C1241   1.455       .  S
C1228      C1353   1.500       .  S
C1228      C1229   1.382       .  A
C1229      C1230   1.367       .  A
C1229      H1232   1.083       .  S
C1230      C1231   1.380       .  A
C1230      H1233   1.083       .  S
C1231      C1370   1.488       .  S
N1234      C1238   1.367       .  A
N1234      C1235   1.359       .  A
N1234      C1244   1.454       .  S
C1235      C1325   1.481       .  S
C1235      C1236   1.380       .  A
C1236      C1237   1.366       .  A
C1236      H1239   1.082       .  S
C1237      C1238   1.382       .  A
C1237      H1240   1.083       .  S
C1238      C1339   1.494       .  S
C1241      C1242   1.413       .  A
C1241      C1246   1.415       .  A
C1242      C1243   1.413       .  A
C1242      C1247   1.445       .  S
C1243      C1244   1.412       .  A
C1243      C1250   1.448       .  S
C1244      C1245   1.413       .  A
C1245      C1246   1.417       .  A
C1245      C1248   1.447       .  S
C1246      C1249   1.448       .  S
C1247      N1254   1.157       .  T
C1248      N1253   1.157       .  T
C1249      N1251   1.157       .  T
C1250      N1252   1.156       .  T
C1255      C1260   1.414       .  A
C1256      C1257   1.411       .  A
C1256      C1261   1.445       .  S
C1257      C1264   1.448       .  S
C1258      C1259   1.409       .  A
C1259      C1260   1.413       .  A
C1259      C1262   1.446       .  S
C1260      C1263   1.448       .  S
C1261      N1268   1.157       .  T
C1262      N1267   1.157       .  T
C1263      N1265   1.157       .  T
C1264      N1266   1.157       .  T
C1269      C1274   1.413       .  A
C1270      C1271   1.417       .  A
C1270      C1275   1.449       .  S
C1271      C1278   1.450       .  S
C1272      C1273   1.420       .  A
C1273      C1274   1.409       .  A
C1273      C1276   1.453       .  S
C1274      C1277   1.450       .  S
C1275      N1282   1.157       .  T
C1276      N1281   1.157   1_556  T
C1277      N1279   1.156       .  T
C1278      N1280   1.157       .  T
C1283      C1284   1.410       .  A
C1284      C1285   1.415       .  A
C1284      C1289   1.452       .  S
C1285      C1286   1.418       .  A
C1285      C1292   1.446       .  S
C1287      C1288   1.413       .  A
C1287      C1290   1.449       .  S
C1288      C1291   1.453       .  S
C1289      N1296   1.157       .  T
C1290      N1295   1.157       .  T
C1291      N1293   1.158       .  T
C1292      N1294   1.156       .  T
C1297      C1298   1.411       .  A
C1298      C1299   1.416       .  A
C1298      C1303   1.452       .  S
C1299      C1300   1.418       .  A
C1299      C1306   1.449       .  S
C1301      C1302   1.418       .  A
C1301      C1304   1.447       .  S
C1302      C1305   1.451       .  S
C1303      N1310   1.157       .  T
C1304      N1309   1.156       .  T
C1306      N1308   1.157       .  T
C1311      C1316   1.423       .  A
C1312      C1313   1.411   1_655  A
C1312      C1317   1.452       .  S
C1313      C1320   1.453   1_455  S
C1314      C1315   1.410       .  A
C1315      C1316   1.420       .  A
C1315      C1318   1.449       .  S
C1316      C1319   1.450       .  S
C1317      N1324   1.157       .  T
C1318      N1323   1.157       .  T
C1319      N1321   1.157       .  T
C1320      N1322   1.157       .  T
C1325      C1326   1.406       .  A
C1325      C1330   1.409       .  A
C1326      C1327   1.414       .  A
C1326      C1331   1.450       .  S
C1327      C1328   1.422       .  A
C1327      C1334   1.450       .  S
C1328      C1329   1.420       .  A
C1329      C1330   1.404       .  A
C1329      C1332   1.452       .  S
C1330      C1333   1.453       .  S
C1331      N1338   1.157       .  T
C1333      N1335   1.156       .  T
C1334      N1796   1.157       .  T
N1336      C1794   1.157       .  T
C1339      C1800   1.418       .  A
C1339      C1344   1.418       .  A
C1340      C1799   1.416       .  A
C1340      C1341   1.413       .  A
C1340      C1345   1.450       .  S
C1341      C1802   1.412       .  A
C1341      C1348   1.452       .  S
C1342      C1619   1.487       .  S
C1342      C1801   1.409       .  A
C1342      C1343   1.410       .  A
C1343      C1344   1.416       .  A
C1343      C1346   1.451       .  S
C1344      C1347   1.447       .  S
C1345      N1352   1.157       .  T
C1346      N1351   1.157       .  T
C1347      N1349   1.156       .  T
C1348      N1350   1.157       .  T
C1353      C1354   1.420       .  A
C1353      C1818   1.418       .  A
C1354      C1355   1.413       .  A
C1354      C1359   1.450       .  S
C1355      C1356   1.409       .  A
C1355      C1362   1.452       .  S
C1356      C1817   1.411       .  A
C1357      C1816   1.408   1_545  A
C1357      C1358   1.414       .  A
C1357      C1360   1.452       .  S
C1358      C1813   1.418   1_545  A
C1358      C1361   1.446       .  S
C1359      N1366   1.157       .  T
C1360      N1365   1.157       .  T
C1361      N1363   1.156       .  T
C1362      N1364   1.157       .  T
C1367      C1613   1.503       .  S
C1367      C1828   1.422       .  A
C1367      C1372   1.422       .  A
C1368      C1827   1.421   1_545  A
C1368      C1369   1.405   1_545  A
C1368      C1373   1.455       .  S
C1369      C1830   1.411       .  A
C1369      C1376   1.452   1_565  S
C1370      C1829   1.412       .  A
C1370      C1371   1.408       .  A
C1371      C1372   1.416       .  A
C1371      C1374   1.449       .  S
C1372      C1375   1.450       .  S
C1373      N1380   1.158       .  T
C1374      N1379   1.157       .  T
C1376      N1378   1.156       .  T
O1381     Zr1393   2.453       .  S
O1382     Zr1419   2.426   1_554  S
O1382      C1383   1.287       .  A
O1384     Zr1396   2.466       .  S
O1385     Zr1420   2.411       .  S
O1385      C1386   1.284       .  A
O1387     Zr1396   2.466       .  S
O1388     Zr1649   2.410       .  S
O1388      C1389   1.284       .  A
O1390     Zr1393   2.465       .  S
O1391     Zr1650   2.425   1_554  S
O1391      C1392   1.287   1_655  A
Zr1393     O1394   2.435       .  S
Zr1393     O1395   2.434       .  S
Zr1393     O1629   2.383   1_554  S
Zr1393     O1630   2.375   1_554  S
O1394      H1437   0.990       .  S
O1395      H1436   0.989       .  S
O1395      H1440   0.990       .  S
Zr1396     O1397   2.435       .  S
Zr1396     O1398   2.434       .  S
Zr1396     O1400   2.372       .  S
Zr1396     O1399   2.375       .  S
O1397      H1438   0.990       .  S
O1397      H1441   0.990       .  S
O1398      H1431   0.990       .  S
O1399     Zr1623   2.377       .  S
O1400     Zr1623   2.375       .  S
O1400      H1427   0.967       .  S
O1401     Zr1413   2.457       .  S
O1402     Zr1650   2.428   1_554  S
O1402      C1403   1.287       .  A
C1403      C1586   1.488       .  S
O1404     Zr1416   2.463       .  S
O1405     Zr1649   2.424       .  S
O1405      C1406   1.286       .  A
C1406      C1502   1.509       .  S
O1407     Zr1416   2.437       .  S
O1408     Zr1420   2.412       .  S
O1408      C1409   1.284       .  A
C1409      C1558   1.499   1_565  S
O1410     Zr1413   2.466       .  S
O1411     Zr1419   2.420   1_554  S
O1411      C1412   1.287       .  A
C1412      C1527   1.490       .  S
Zr1413     O1414   2.432       .  S
Zr1413     O1415   2.434       .  S
Zr1413     O1421   2.376       .  S
Zr1413     O1422   2.376       .  S
O1414      H1434   0.990       .  S
O1414      H1439   0.990       .  S
O1415      H1435   0.990       .  S
Zr1416     O1417   2.433       .  S
Zr1416     O1418   2.435       .  S
Zr1416     O1652   2.369       .  S
Zr1416     O1651   2.382       .  S
O1417      H1433   0.990       .  S
O1418      H1432   0.990       .  S
O1418      H1442   0.990       .  S
Zr1419     O1618   2.420       .  S
Zr1419     O1635   2.431       .  S
Zr1419     O1654   2.379       .  S
Zr1419     O1425   2.383   1_556  S
Zr1420     O1621   2.416       .  S
Zr1420     O1632   2.405       .  S
Zr1420     O1653   2.375       .  S
Zr1420     O1426   2.376       .  S
O1421     Zr1646   2.385   1_554  S
O1421      H1429   0.966       .  S
O1422     Zr1646   2.378   1_554  S
O1423     Zr1650   2.375   1_554  S
O1424     Zr1649   2.379       .  S
O1424      H1428   0.967       .  S
O1425      H1430   0.965       .  S
N1443      C1447   1.367       .  A
N1443      C1444   1.362       .  A
N1443      C1485   1.452       .  S
C1444      C1544   1.487       .  S
C1444      C1445   1.381       .  A
C1445      C1446   1.366       .  A
C1445      H1448   1.083       .  S
C1446      C1447   1.380       .  A
C1446      H1449   1.082       .  S
C1447      C1530   1.496       .  S
N1450      C1454   1.363       .  A
N1450      C1451   1.368       .  A
N1450      C1488   1.451       .  S
C1451      C1516   1.501       .  S
C1451      C1452   1.381       .  A
C1452      C1453   1.369       .  A
C1452      H1455   1.082       .  S
C1453      C1454   1.381       .  A
C1453      H1456   1.082       .  S
C1454      C1499   1.491       .  S
N1457      C1461   1.362       .  A
N1457      C1458   1.369       .  A
N1457      C1471   1.455       .  S
C1458      C1583   1.497       .  S
C1458      C1459   1.382       .  A
C1459      C1460   1.366       .  A
C1459      H1462   1.083       .  S
C1460      C1461   1.380       .  A
C1460      H1463   1.082       .  S
C1461      C1600   1.486       .  S
N1464      C1468   1.371       .  A
N1464      C1465   1.360       .  A
N1464      C1474   1.453       .  S
C1465      C1555   1.485       .  S
C1465      C1466   1.380       .  A
C1466      C1467   1.368       .  A
C1466      H1469   1.082       .  S
C1467      C1468   1.382       .  A
C1467      H1470   1.083       .  S
C1468      C1569   1.502       .  S
C1471      C1472   1.414   1_565  A
C1471      C1476   1.415       .  A
C1472      C1473   1.413       .  A
C1472      C1477   1.445       .  S
C1473      C1474   1.412       .  A
C1473      C1480   1.448       .  S
C1474      C1475   1.414   1_545  A
C1475      C1476   1.416       .  A
C1475      C1478   1.447       .  S
C1476      C1479   1.447       .  S
C1477      N1484   1.157       .  T
C1478      N1483   1.158       .  T
C1479      N1481   1.156       .  T
C1480      N1482   1.156       .  T
C1485      C1490   1.415       .  A
C1486      C1487   1.415       .  A
C1486      C1491   1.446       .  S
C1487      C1494   1.447       .  S
C1488      C1489   1.410       .  A
C1489      C1490   1.415       .  A
C1489      C1492   1.446       .  S
C1490      C1493   1.447       .  S
C1491      N1498   1.157       .  T
C1492      N1497   1.157       .  T
C1493      N1495   1.157       .  T
C1494      N1496   1.156       .  T
C1499      C1504   1.412       .  A
C1500      C1501   1.418       .  A
C1500      C1505   1.450       .  S
C1501      C1508   1.449       .  S
C1502      C1503   1.422       .  A
C1503      C1504   1.411       .  A
C1503      C1506   1.452       .  S
C1504      C1507   1.452       .  S
C1505      N1512   1.157       .  T
C1506      N1511   1.157       .  T
C1507      N1509   1.156       .  T
C1508      N1510   1.157       .  T
C1513      C1514   1.411       .  A
C1514      C1515   1.417       .  A
C1514      C1519   1.452       .  S
C1515      C1516   1.418       .  A
C1515      C1522   1.446       .  S
C1517      C1518   1.412       .  A
C1517      C1520   1.450       .  S
C1518      C1521   1.453       .  S
C1519      N1526   1.157       .  T
C1520      N1525   1.157       .  T
C1521      N1523   1.157       .  T
C1522      N1524   1.156       .  T
C1527      C1528   1.410       .  A
C1528      C1529   1.411       .  A
C1528      C1533   1.452       .  S
C1529      C1530   1.419       .  A
C1529      C1536   1.451       .  S
C1531      C1532   1.417       .  A
C1531      C1534   1.446       .  S
C1532      C1535   1.452       .  S
C1533      N1540   1.157       .  T
C1534      N1539   1.156       .  T
C1535      N1767   1.157       .  T
C1536      N1538   1.157       .  T
N1537      C1765   1.157       .  T
C1541      C1546   1.425       .  A
C1542      C1543   1.409       .  A
C1542      C1547   1.451       .  S
C1543      C1550   1.452       .  S
C1544      C1545   1.406       .  A
C1545      C1546   1.418       .  A
C1545      C1548   1.450       .  S
C1546      C1549   1.449       .  S
C1547      N1554   1.157   1_554  T
C1548      N1553   1.157       .  T
C1549      N1551   1.157       .  T
C1550      N1552   1.156       .  T
C1555      C1556   1.408       .  A
C1555      C1560   1.409   1_545  A
C1556      C1557   1.416       .  A
C1556      C1561   1.449       .  S
C1557      C1558   1.421       .  A
C1557      C1564   1.451       .  S
C1558      C1559   1.422   1_545  A
C1559      C1560   1.405       .  A
C1559      C1562   1.453       .  S
C1560      C1563   1.451       .  S
C1561      N1568   1.157       .  T
C1562      N1797   1.157       .  T
C1563      N1565   1.156       .  T
N1567      C1792   1.157   1_554  T
C1569      C1574   1.418   1_545  A
C1570      C1571   1.414       .  A
C1570      C1575   1.449       .  S
C1571      C1578   1.453       .  S
C1572      C1573   1.411   1_545  A
C1573      C1574   1.419       .  A
C1573      C1576   1.451       .  S
C1574      C1577   1.446       .  S
C1575      N1582   1.157       .  T
C1576      N1581   1.157       .  T
C1577      N1579   1.156       .  T
C1578      N1580   1.157       .  T
C1583      C1584   1.421       .  A
C1584      C1585   1.411       .  A
C1584      C1589   1.450       .  S
C1585      C1586   1.407       .  A
C1585      C1592   1.451       .  S
C1587      C1588   1.417       .  A
C1587      C1590   1.451       .  S
C1588      C1591   1.446       .  S
C1589      N1596   1.157       .  T
C1590      N1595   1.157       .  T
C1591      N1593   1.156       .  T
C1592      N1594   1.157       .  T
C1597      C1602   1.422       .  A
C1598      C1599   1.408       .  A
C1598      C1603   1.453       .  S
C1599      C1606   1.453       .  S
C1600      C1601   1.407       .  A
C1601      C1602   1.416       .  A
C1601      C1604   1.450       .  S
C1602      C1605   1.450       .  S
C1603      N1610   1.157   1_554  T
C1604      N1609   1.157       .  T
C1605      N1837   1.157       .  T
C1606      N1608   1.157       .  T
N1607      C1835   1.157       .  T
O1611     Zr1623   2.448       .  S
O1612     Zr1649   2.413       .  S
O1612      C1613   1.284       .  A
O1614     Zr1626   2.465       .  S
O1615     Zr1650   2.424       .  S
O1615      C1616   1.287       .  A
O1617     Zr1626   2.468       .  S
O1618      C1619   1.286       .  A
O1620     Zr1623   2.458       .  S
O1621      C1622   1.284   1_655  A
Zr1623     O1624   2.436       .  S
Zr1623     O1625   2.433       .  S
O1624      H1667   0.990       .  S
O1625      H1666   0.989       .  S
O1625      H1670   0.990       .  S
Zr1626     O1627   2.434       .  S
Zr1626     O1628   2.434       .  S
Zr1626     O1630   2.378       .  S
Zr1626     O1629   2.379       .  S
O1627      H1668   0.990       .  S
O1627      H1671   0.990       .  S
O1628      H1661   0.990       .  S
O1630      H1657   0.967       .  S
O1631     Zr1643   2.453       .  S
O1632      C1633   1.283       .  A
C1633      C1816   1.485       .  S
O1634     Zr1646   2.463       .  S
O1635      C1636   1.288       .  A
C1636      C1732   1.515       .  S
O1637     Zr1646   2.445       .  S
O1638     Zr1650   2.411       .  S
O1638      C1639   1.284       .  A
C1639      C1788   1.498       .  S
O1640     Zr1643   2.450       .  S
O1641     Zr1649   2.416       .  S
O1641      C1642   1.285       .  A
C1642      C1757   1.478       .  S
Zr1643     O1644   2.431       .  S
Zr1643     O1645   2.436       .  S
Zr1643     O1651   2.375       .  S
Zr1643     O1652   2.379       .  S
O1644      H1664   0.990       .  S
O1644      H1669   0.990       .  S
O1645      H1665   0.990       .  S
Zr1646     O1647   2.433       .  S
Zr1646     O1648   2.435       .  S
O1647      H1663   0.990       .  S
O1648      H1662   0.990       .  S
O1648      H1672   0.990       .  S
Zr1649     O1655   2.380       .  S
Zr1650     O1656   2.379       .  S
O1651      H1659   0.967       .  S
O1654      H1658   0.967       .  S
O1655      H1660   0.966       .  S
N1673      C1677   1.364       .  A
N1673      C1674   1.361       .  A
N1673      C1715   1.452       .  S
C1674      C1774   1.483       .  S
C1674      C1675   1.381       .  A
C1675      C1676   1.367       .  A
C1675      H1678   1.082       .  S
C1676      C1677   1.380       .  A
C1676      H1679   1.083       .  S
C1677      C1760   1.489       .  S
N1680      C1684   1.365       .  A
N1680      C1681   1.369       .  A
N1680      C1718   1.451       .  S
C1681      C1746   1.503       .  S
C1681      C1682   1.380       .  A
C1682      C1683   1.369       .  A
C1682      H1685   1.082       .  S
C1683      C1684   1.384       .  A
C1683      H1686   1.083       .  S
C1684      C1729   1.498       .  S
N1687      C1691   1.358       .  A
N1687      C1688   1.365       .  A
N1687      C1701   1.452       .  S
C1688      C1813   1.493       .  S
C1688      C1689   1.382       .  A
C1689      C1690   1.369       .  A
C1689      H1692   1.082       .  S
C1690      C1691   1.379       .  A
C1690      H1693   1.082       .  S
C1691      C1830   1.481       .  S
N1694      C1698   1.367       .  A
N1694      C1695   1.358       .  A
N1694      C1704   1.451       .  S
C1695      C1785   1.481       .  S
C1695      C1696   1.380       .  A
C1696      C1697   1.367       .  A
C1696      H1699   1.082       .  S
C1697      C1698   1.382       .  A
C1697      H1700   1.083       .  S
C1698      C1799   1.495       .  S
C1701      C1702   1.412   1_565  A
C1701      C1706   1.414       .  A
C1702      C1703   1.412       .  A
C1702      C1707   1.445       .  S
C1703      C1704   1.412       .  A
C1703      C1710   1.448       .  S
C1704      C1705   1.412   1_545  A
C1705      C1706   1.413       .  A
C1705      C1708   1.446       .  S
C1706      C1709   1.448       .  S
C1707      N1714   1.157       .  T
C1708      N1713   1.157       .  T
C1709      N1711   1.157       .  T
C1710      N1712   1.157       .  T
C1715      C1720   1.412       .  A
C1716      C1717   1.415       .  A
C1716      C1721   1.446       .  S
C1717      C1724   1.447       .  S
C1718      C1719   1.409       .  A
C1719      C1720   1.413       .  A
C1719      C1722   1.446       .  S
C1720      C1723   1.446       .  S
C1721      N1728   1.157       .  T
C1722      N1727   1.157       .  T
C1723      N1725   1.157       .  T
C1724      N1726   1.157       .  T
C1729      C1734   1.412       .  A
C1730      C1731   1.423       .  A
C1730      C1735   1.449       .  S
C1731      C1738   1.450       .  S
C1732      C1733   1.422       .  A
C1733      C1734   1.411       .  A
C1733      C1736   1.451       .  S
C1734      C1737   1.453       .  S
C1735      N1742   1.157       .  T
C1736      N1741   1.157   1_556  T
C1737      N1739   1.156       .  T
C1738      N1740   1.157       .  T
C1743      C1744   1.411       .  A
C1744      C1745   1.418       .  A
C1744      C1749   1.452       .  S
C1745      C1746   1.418       .  A
C1745      C1752   1.447       .  S
C1747      C1748   1.419       .  A
C1747      C1750   1.448       .  S
C1748      C1751   1.452       .  S
C1749      N1756   1.157       .  T
C1750      N1755   1.157       .  T
C1751      N1753   1.157       .  T
C1752      N1754   1.156       .  T
C1757      C1758   1.407       .  A
C1758      C1759   1.409       .  A
C1758      C1763   1.453       .  S
C1759      C1760   1.417       .  A
C1759      C1766   1.449       .  S
C1761      C1762   1.416       .  A
C1761      C1764   1.447       .  S
C1762      C1765   1.452       .  S
C1763      N1770   1.157       .  T
C1764      N1769   1.156       .  T
C1766      N1768   1.157       .  T
C1771      C1776   1.423       .  A
C1772      C1773   1.410       .  A
C1772      C1777   1.453       .  S
C1773      C1780   1.453       .  S
C1774      C1775   1.406       .  A
C1775      C1776   1.415       .  A
C1775      C1778   1.450       .  S
C1776      C1779   1.450       .  S
C1777      N1784   1.158       .  T
C1778      N1783   1.157       .  T
C1779      N1781   1.157       .  T
C1780      N1782   1.156       .  T
C1785      C1786   1.407       .  A
C1785      C1790   1.409   1_545  A
C1786      C1787   1.413       .  A
C1786      C1791   1.449       .  S
C1787      C1788   1.422   1_545  A
C1787      C1794   1.451       .  S
C1788      C1789   1.423       .  A
C1789      C1790   1.404       .  A
C1789      C1792   1.453       .  S
C1790      C1793   1.454       .  S
C1791      N1798   1.157       .  T
C1793      N1795   1.157       .  T
C1799      C1804   1.416   1_545  A
C1800      C1801   1.410       .  A
C1800      C1805   1.450       .  S
C1801      C1808   1.452       .  S
C1802      C1803   1.411   1_545  A
C1803      C1804   1.416       .  A
C1803      C1806   1.451       .  S
C1804      C1807   1.447       .  S
C1805      N1812   1.157       .  T
C1806      N1811   1.157       .  T
C1807      N1809   1.156       .  T
C1808      N1810   1.157       .  T
C1813      C1814   1.417       .  A
C1814      C1815   1.412       .  A
C1814      C1819   1.450       .  S
C1815      C1816   1.410       .  A
C1815      C1822   1.451       .  S
C1817      C1818   1.418       .  A
C1817      C1820   1.451       .  S
C1818      C1821   1.446       .  S
C1819      N1826   1.157       .  T
C1820      N1825   1.157       .  T
C1821      N1823   1.156       .  T
C1822      N1824   1.157       .  T
C1827      C1832   1.420       .  A
C1828      C1829   1.408       .  A
C1828      C1833   1.453       .  S
C1829      C1836   1.453       .  S
C1830      C1831   1.407       .  A
C1831      C1832   1.412       .  A
C1831      C1834   1.449       .  S
C1832      C1835   1.451       .  S
C1833      N1840   1.157       .  T
C1834      N1839   1.157       .  T
C1836      N1838   1.157       .  T
