geometry optimzed in LAMMPS
_audit_creation_date              2020-12-01 
_audit_creation_method            'lammps2cif' 
_symmetry_space_group_name_H-M    'P1' 
_symmetry_Int_Tables_number       1 
_symmetry_cell_setting            triclinic 
loop_ 
_symmetry_equiv_pos_as_xyz 
  x,y,z 
_cell_length_a                    40.69573534 
_cell_length_b                    40.85268575206831 
_cell_length_c                    68.03006615922894 
_cell_angle_alpha                 90.27489887922667 
_cell_angle_beta                  90.26030008500027 
_cell_angle_gamma                 89.50882617865277 
loop_ 
_atom_site_label 
_atom_site_type_symbol 
_atom_site_fract_x 
_atom_site_fract_y 
_atom_site_fract_z 
_atom_site_charge 
C1          C  0.25005514  0.03749364  0.23578055     0.86100
C2          C  0.28057136  0.03372807  0.24900127    -0.54200
C3          C  0.27946699  0.50870588  0.26306254     0.09000
C4          C  0.24918715  0.48654131  0.26077165     0.20000
C5          C  0.24815863  0.00400782  0.22515842    -0.54900
C6          C  0.24841166  0.47687950  0.23885759     0.09100
C7          C  0.22059903  0.03735101  0.24983239    -0.54400
C8          C  0.21942289  0.50996240  0.26332941     0.09700
H9          H  0.30120010  0.05040578  0.24859647     0.14200
H10         H  0.24920652  0.46533241  0.27092354    -0.00100
H11         H  0.24947032  0.49881558  0.21074329     0.14500
H12         H  0.20124595  0.05578029  0.24922751     0.14300
N13         N  0.44788729  0.26764070  0.00025347    -0.37000
N14         N  0.99844082  0.26983705  0.97153497    -0.57600
N15         N  0.04890655  0.27157882  0.00142427    -0.37000
N16         N  0.99903438  0.27393273  0.03165890    -0.57600
C17         C  0.42998911  0.27388964  0.98386725     0.26600
C18         C  0.42913243  0.27588479  0.01588404     0.26600
C19         C  0.06665186  0.27883330  0.98530040     0.26600
C20         C  0.06705612  0.28015191  0.01725619     0.26600
C21         C  0.47284268  0.25988808  0.95912678     0.35200
C22         C  0.02505634  0.26367320  0.96029787     0.35200
C23         C  0.47081066  0.26690347  0.04233033     0.35200
C24         C  0.02586798  0.26804755  0.04290315     0.35200
C25         C  0.39931694  0.28600218  0.98916810    -0.22300
C26         C  0.39872063  0.28710449  0.00940301    -0.22300
C27         C  0.09647426  0.29215116  0.99091085    -0.22300
C28         C  0.09672990  0.29301187  0.01115080    -0.22300
C29         C  0.48291948  0.24920422  0.94071367    -0.23300
C30         C  0.01560567  0.25179168  0.94203852    -0.23300
C31         C  0.47987050  0.25970405  0.06151764    -0.23300
C32         C  0.01655160  0.25833209  0.06154640    -0.23300
C33         C  0.43992431  0.26697353  0.96435564    -0.18700
C34         C  0.43814166  0.27188016  0.03582819    -0.18700
C35         C  0.05847705  0.27408081  0.03697773    -0.18700
C36         C  0.05758220  0.27099276  0.96582742    -0.18700
H37         H  0.37928886  0.29289697  0.97947510     0.14200
H38         H  0.37820875  0.29513973  0.01833422     0.14200
H39         H  0.11620574  0.29984022  0.98141768     0.14200
H40         H  0.11669528  0.30158967  0.02033601     0.14200
H41         H  0.46762096  0.24330255  0.92815488     0.12500
H42         H  0.03126784  0.24514165  0.92981244     0.12500
H43         H  0.46389162  0.25576415  0.07394491     0.12500
H44         H  0.03239163  0.25239400  0.07386646     0.12500
H45         H  0.47014165  0.25494653  0.00084415     0.25800
H46         H  0.02771842  0.25757488  0.00169353     0.25800
C47         C  0.24701825  0.03868193  0.76340852     0.86100
C48         C  0.24413973  0.00668331  0.77495624    -0.54200
C49         C  0.24321516  0.47932058  0.76429660     0.09000
C50         C  0.24556399  0.48581976  0.74196468     0.20000
C51         C  0.27824088  0.03271581  0.75108115    -0.54900
C52         C  0.27794589  0.50481505  0.73942766     0.09100
C53         C  0.21871028  0.03810191  0.74848141    -0.54400
C54         C  0.21831858  0.51128288  0.73776522     0.09700
H55         H  0.24546567  0.50581974  0.79165807     0.14200
H56         H  0.24334233  0.46364168  0.73264302    -0.00100
H57         H  0.30019882  0.04729944  0.75222232     0.14500
H58         H  0.20031091  0.05746318  0.74754964     0.14300
C59         C  0.99882289  0.21063466  0.73725733     0.86100
C60         C  0.02653680  0.21273088  0.75281321    -0.54200
C61         C  0.02572609  0.24034663  0.76420018     0.09000
C62         C  0.99749712  0.26412415  0.75885555     0.20000
C63         C  0.46687136  0.21485400  0.75045248    -0.54900
C64         C  0.46600504  0.24269660  0.76160893     0.09100
C65         C  0.00279979  0.24242998  0.72554616    -0.54400
C66         C  0.00183370  0.27031685  0.73668857     0.09700
H67         H  0.04630467  0.19521072  0.75469296     0.14200
H68         H  0.99690418  0.28680717  0.76792007    -0.00100
H69         H  0.44678687  0.19750687  0.75018693     0.14500
H70         H  0.00582032  0.24290731  0.70969398     0.14300
N71         N  0.24558911  0.45633575  0.00069302    -0.37000
N72         N  0.25247908  0.00554536  0.03090507    -0.57600
N73         N  0.25203057  0.05734743  0.00107625    -0.37000
N74         N  0.25180179  0.00854383  0.97058230    -0.57600
C75         C  0.25134604  0.43756353  0.01676726     0.26600
C76         C  0.25165402  0.43763520  0.98464767     0.26600
C77         C  0.25955003  0.07461201  0.01742870     0.26600
C78         C  0.25943065  0.07621680  0.98542597     0.26600
C79         C  0.24244971  0.48087782  0.04197345     0.35200
C80         C  0.24645279  0.03207483  0.04230270     0.35200
C81         C  0.24441268  0.48061394  0.95875437     0.35200
C82         C  0.24724224  0.03548844  0.95934809     0.35200
C83         C  0.26055363  0.40632220  0.01080094    -0.22300
C84         C  0.26061826  0.40632992  0.99053438    -0.22300
C85         C  0.27172337  0.10495231  0.01214794    -0.22300
C86         C  0.27158858  0.10597726  0.99192245    -0.22300
C87         C  0.23299465  0.49159372  0.06046839    -0.23300
C88         C  0.23565453  0.02241852  0.06067264    -0.23300
C89         C  0.23708021  0.49032008  0.93967884    -0.23300
C90         C  0.23755189  0.02660569  0.94055352    -0.23300
C91         C  0.24740483  0.44770819  0.03660975    -0.18700
C92         C  0.24771783  0.44764581  0.96485570    -0.18700
C93         C  0.25377270  0.06786594  0.96550805    -0.18700
C94         C  0.25295696  0.06476874  0.03690523    -0.18700
H95         H  0.26653120  0.38562197  0.02005942     0.14200
H96         H  0.26656931  0.38561213  0.98119317     0.14200
H97         H  0.27933763  0.12455577  0.02186421     0.14200
H98         H  0.27923318  0.12642110  0.98302610     0.14200
H99         H  0.22652470  0.47677246  0.07299124     0.12500
H100        H  0.22923220  0.03794195  0.07303051     0.12500
H101        H  0.23134903  0.47485193  0.92718589     0.12500
H102        H  0.23251108  0.04257969  0.92823535     0.12500
H103        H  0.23504730  0.47950720  0.00050422     0.25800
H104        H  0.23884550  0.03564779  0.00077164     0.25800
C105        C  0.34973707  0.26880616  0.89829073     0.42100
N106        N  0.31780611  0.25047193  0.87569245     0.00900
C107        C  0.21324678  0.34254614  0.81646229    -0.06900
H108        H  0.19146914  0.35088742  0.89233774     0.06400
C109        C  0.16390437  0.23387198  0.89343493    -0.07300
Co110      Co  0.28734374  0.30465716  0.85227041     0.74200
N111        N  0.22813580  0.32885759  0.87364941    -0.26500
Co112      Co  0.20226689  0.30018909  0.85374914     0.74100
C113        C  0.14973874  0.26410829  0.90146961     0.42200
N114        N  0.23689102  0.19455706  0.87936006     0.00600
N115        N  0.17976959  0.27559780  0.87667878     0.00700
N116        N  0.26851469  0.34590866  0.81645281    -0.47300
H117        H  0.33728236  0.32235209  0.89042059     0.06400
N118        N  0.26046004  0.33039480  0.87328911     0.01000
N119        N  0.17696242  0.27035642  0.83408151     0.00700
C120        C  0.14157447  0.25273063  0.81306257     0.42300
N121        N  0.26923219  0.19638246  0.87868058    -0.25900
C122        C  0.33453768  0.28786261  0.81763968    -0.06800
N123        N  0.33794784  0.24114052  0.88999357    -0.47000
N124        N  0.15449895  0.28004384  0.82114351    -0.47200
C125        C  0.35129022  0.25833750  0.81067251     0.42100
N126        N  0.25820865  0.32617675  0.83045547     0.00900
N127        N  0.26697390  0.19132938  0.83591278    -0.25900
N128        N  0.31549347  0.28258998  0.87419946    -0.26400
N129        N  0.23460178  0.18947095  0.83648778     0.00600
H130        H  0.30369705  0.16517168  0.81931831     0.06500
H131        H  0.15290237  0.19904720  0.82129788     0.06500
N132        N  0.22591083  0.32408452  0.83091693    -0.26500
N133        N  0.18196578  0.24346631  0.87811202    -0.26100
N134        N  0.31678198  0.24529816  0.83307365     0.00900
C135        C  0.24651943  0.36081640  0.89768824     0.42300
C136        C  0.28193530  0.17957492  0.89385165    -0.07300
N137        N  0.17928012  0.23820054  0.83538493    -0.26100
H138        H  0.15985443  0.20877263  0.89770965     0.06500
N139        N  0.27248111  0.34907133  0.88749796    -0.47300
H140        H  0.30784821  0.17596600  0.89679511     0.06500
C141        C  0.24860500  0.15575069  0.81367749     0.42200
C142        C  0.33455112  0.29634747  0.88799295    -0.06800
Co143      Co  0.29312399  0.22033033  0.85581568     0.73800
N144        N  0.22650809  0.17701313  0.89443410    -0.47000
C145        C  0.24166706  0.35708351  0.80671321     0.42400
N146        N  0.33940358  0.23297835  0.82108089    -0.47000
Co147      Co  0.20776188  0.21585010  0.85734815     0.73900
C148        C  0.15796178  0.22490779  0.82263346    -0.07300
C149        C  0.21702304  0.34733768  0.88853518    -0.06900
N150        N  0.31384044  0.27743532  0.83153985    -0.26400
N151        N  0.16084607  0.28890956  0.89037720    -0.47200
H152        H  0.18730769  0.34707642  0.81415027     0.06400
C153        C  0.27809471  0.17063357  0.82210044    -0.07300
Cl154      Cl  0.24764679  0.26020861  0.85470194    -0.50300
C155        C  0.25354607  0.16705396  0.90446933     0.42200
H156        H  0.33991088  0.31317442  0.81448063     0.06400
N157        N  0.22265165  0.16821644  0.82359727    -0.47000
C158        C  0.35606815  0.25565855  0.18937487     0.42100
N159        N  0.31962358  0.24493789  0.16734119     0.00900
C160        C  0.21774910  0.34715293  0.11378297    -0.06900
H161        H  0.19161639  0.34332744  0.18980666     0.06400
C162        C  0.16387626  0.22175578  0.17850806    -0.07300
Co163      Co  0.29033763  0.30489946  0.14915364     0.74200
N164        N  0.22980463  0.32288114  0.17162279    -0.26500
Co165      Co  0.20525921  0.29951758  0.14855872     0.74100
C166        C  0.14942015  0.24834529  0.19015257     0.42200
N167        N  0.23854774  0.18846550  0.16403601     0.00600
N168        N  0.18144276  0.26832892  0.16814327     0.00700
N169        N  0.27318286  0.34929558  0.11392180    -0.47300
H170        H  0.34614447  0.31131349  0.18634197     0.06400
N171        N  0.26210656  0.32556059  0.17185504     0.01000
N172        N  0.18252905  0.27511716  0.12514899     0.00700
C173        C  0.15632861  0.26415091  0.09848086     0.42300
N174        N  0.27085602  0.19099204  0.16482141    -0.25900
C175        C  0.33369307  0.29622946  0.11166117    -0.06800
N176        N  0.34197058  0.23148061  0.17892930    -0.47000
N177        N  0.16519267  0.28866017  0.11075759    -0.47200
C178        C  0.34633347  0.26840058  0.10026326     0.42100
N179        N  0.26215720  0.33123874  0.12862802     0.00900
N180        N  0.27195385  0.19626875  0.12214162    -0.25900
N181        N  0.31797919  0.27705508  0.16918719    -0.26400
N182        N  0.23969402  0.19415312  0.12145706     0.00600
H183        H  0.31072457  0.17384786  0.10529137     0.06500
H184        H  0.16557362  0.20869696  0.10227538     0.06500
N185        N  0.22982113  0.32938928  0.12873800    -0.26500
N186        N  0.18355268  0.23638744  0.16566937    -0.26100
N187        N  0.31906881  0.25069283  0.12488315     0.00900
C188        C  0.24597466  0.35364522  0.19701872     0.42300
C189        C  0.28239553  0.17056826  0.17866698    -0.07300
N190        N  0.18517995  0.24305760  0.12321724    -0.26100
H191        H  0.15835494  0.19597468  0.17815831     0.06500
N192        N  0.27273389  0.34400659  0.18664463    -0.47300
H193        H  0.30802648  0.16560875  0.18178502     0.06500
C194        C  0.25650144  0.16333218  0.09795657     0.42200
C195        C  0.33999637  0.28623432  0.18290079    -0.06800
Co196      Co  0.29581127  0.22038348  0.14484405     0.73800
N197        N  0.22703675  0.16674510  0.17658987    -0.47000
C198        C  0.24656619  0.35967559  0.10360947     0.42400
N199        N  0.33653622  0.24107025  0.10952546    -0.47000
Co200      Co  0.21122377  0.21509284  0.14351403     0.73900
C201        C  0.16894404  0.23374182  0.10700168    -0.07300
C202        C  0.21749505  0.33959695  0.18692042    -0.06900
N203        N  0.31699581  0.28283728  0.12648639    -0.26400
N204        N  0.16105120  0.27657981  0.18252880    -0.47200
H205        H  0.19197309  0.35051976  0.11041095     0.06400
C206        C  0.28479810  0.17794341  0.10771253    -0.07300
Cl207      Cl  0.25067617  0.25999284  0.14659352    -0.50300
C208        C  0.25323291  0.15489019  0.18657725     0.42200
H209        H  0.33617408  0.32217979  0.10908786     0.06400
N210        N  0.22933998  0.17463611  0.10717419    -0.47000
C211        C  0.10116915  0.49699448  0.68969632     0.42100
N212        N  0.06709897  0.47898512  0.66792924     0.00900
C213        C  0.46995409  0.07001784  0.60769955    -0.06900
H214        H  0.44082181  0.08449175  0.68054198     0.06400
C215        C  0.40768350  0.45957652  0.68081136    -0.07300
Co216      Co  0.03667262  0.03340148  0.64456558     0.74200
N217        N  0.47905726  0.05710827  0.66577885    -0.26500
Co218      Co  0.45499876  0.02833695  0.64506994     0.74100
C219        C  0.39115849  0.48968589  0.68770773     0.42200
N220        N  0.48592913  0.42120938  0.67005251     0.00600
N221        N  0.42982434  0.00334863  0.66696511     0.00700
N222        N  0.02160506  0.07207736  0.60711037    -0.47300
H223        H  0.08804342  0.05034114  0.68158541     0.06400
N224        N  0.00830594  0.05937052  0.66480559     0.01000
N225        N  0.43201685  0.99873856  0.62444946     0.00700
C226        C  0.40282965  0.48065823  0.59868533     0.42300
N227        N  0.01816951  0.42453557  0.66903670    -0.25900
C228        C  0.08224154  0.01723336  0.60946525    -0.06800
N229        N  0.08959845  0.46953907  0.68094163    -0.47000
N230        N  0.41371502  0.00878106  0.60950229    -0.47200
C231        C  0.09618991  0.48985065  0.60038445     0.42100
N232        N  0.00971203  0.05498913  0.62192666     0.00900
N233        N  0.01901643  0.42117938  0.62605515    -0.25900
N234        N  0.06320549  0.01083668  0.66698069    -0.26400
N235        N  0.48753543  0.41775512  0.62711509     0.00600
H236        H  0.05677209  0.40039216  0.60769774     0.06500
H237        H  0.41439995  0.42666262  0.60613027     0.06500
N238        N  0.48083012  0.05264778  0.62314805    -0.26500
N239        N  0.42956046  0.46952066  0.66735215    -0.26100
N240        N  0.06696223  0.47572150  0.62512969     0.00900
C241        C  0.49528652  0.09371176  0.68779963     0.42300
C242        C  0.03018490  0.40641820  0.68379209    -0.07300
N243        N  0.43281307  0.46553822  0.62451672    -0.26100
H244        H  0.40226145  0.43432201  0.68407335     0.06500
N245        N  0.01943248  0.08041262  0.67803807    -0.47300
H246        H  0.05601610  0.40266918  0.68691653     0.06500
C247        C  0.50353048  0.38760452  0.60295548     0.42200
C248        C  0.08351371  0.02439330  0.68014462    -0.06800
Co249      Co  0.04335583  0.44950958  0.64710013     0.73800
N250        N  0.47497515  0.40160558  0.68402114    -0.47000
C251        C  0.49964861  0.08272616  0.59845683     0.42400
N252        N  0.08595224  0.46392660  0.61095176    -0.47000
Co253      Co  0.45845682  0.44285314  0.64738272     0.73900
C254        C  0.41635962  0.45251691  0.60930259    -0.07300
C255        C  0.46661238  0.07879251  0.67862356    -0.06900
N256        N  0.06399154  0.00656810  0.62435664    -0.26400
N257        N  0.40716187  0.01637092  0.67853965    -0.47200
H258        H  0.44444762  0.07385989  0.60374860     0.06400
C259        C  0.03100099  0.40336841  0.61106003    -0.07300
Cl260      Cl  0.49782519  0.48805605  0.64678819    -0.50300
C261        C  0.50153745  0.39133225  0.69443942     0.42200
H262        H  0.08550137  0.04268876  0.60578945     0.06400
N263        N  0.47683218  0.39866358  0.61271352    -0.47000
C264        C  0.49974959  0.09067172  0.31234744     0.42100
N265        N  0.48526255  0.05713375  0.33468582     0.00900
C266        C  0.08251640  0.45520058  0.39056193    -0.06900
H267        H  0.09530026  0.43198724  0.31895250     0.06400
C268        C  0.46419345  0.40685221  0.31767819    -0.07300
Co269      Co  0.04522204  0.02686630  0.35522432     0.74200
N270        N  0.06572733  0.46867686  0.33298338    -0.26500
Co271      Co  0.03809957  0.44345802  0.35389222     0.74100
C272        C  0.49258012  0.39280035  0.30740418     0.42200
N273        N  0.42846472  0.47869085  0.33467322     0.00600
N274        N  0.00974287  0.42109259  0.33211056     0.00700
N275        N  0.08920287  0.00711919  0.38997927    -0.47300
H276        H  0.05625276  0.08063521  0.31812598     0.06400
N277        N  0.06827195  0.00095070  0.33269943     0.01000
N278        N  0.01054790  0.41926192  0.37502842     0.00700
C279        C  0.49591900  0.38846776  0.39967031     0.42300
N280        N  0.43091941  0.00903091  0.33373358    -0.25900
C281        C  0.03372145  0.06746353  0.39357397    -0.06800
N282        N  0.47361397  0.07884407  0.32201736    -0.47000
N283        N  0.02222619  0.39979347  0.38897200    -0.47200
C284        C  0.50145309  0.08276299  0.40262520     0.42100
N285        N  0.06991272  0.99721222  0.37544965     0.00900
N286        N  0.43178675  0.00685830  0.37655175    -0.25900
N287        N  0.01942852  0.05556103  0.33494547    -0.26400
N288        N  0.43098139  0.47692470  0.37747995     0.00600
H289        H  0.40992965  0.04384353  0.39510308     0.06500
H290        H  0.44134026  0.40180330  0.39477877     0.06500
N291        N  0.06462734  0.46740876  0.37570902    -0.26500
N292        N  0.47688379  0.42371744  0.33279923    -0.26100
N293        N  0.48595586  0.05483783  0.37739990     0.00900
C294        C  0.10419764  0.48682849  0.31219241     0.42300
C295        C  0.41153045  0.02191595  0.31980653    -0.07300
N296        N  0.47852669  0.42137183  0.37577982    -0.26100
H297        H  0.43825558  0.40385118  0.31473221     0.06500
N298        N  0.08966136  0.01332977  0.32026762    -0.47300
H299        H  0.40726918  0.04779859  0.31755897     0.06500
C300        C  0.40159412  0.49229967  0.40191820     0.42200
C301        C  0.03067474  0.07570046  0.32105017    -0.06800
Co302      Co  0.45802211  0.03244499  0.35557744     0.73800
N303        N  0.40646442  0.46879140  0.32155296    -0.47000
C304        C  0.09669203  0.48384946  0.40019273     0.42400
N305        N  0.47494634  0.07301884  0.39216754    -0.47000
Co306      Co  0.45317960  0.44959766  0.35517231     0.73900
C307        C  0.46690454  0.40363497  0.39070736    -0.07300
C308        C  0.08837085  0.45744041  0.32021629    -0.06900
N309        N  0.02140782  0.05176520  0.37788852    -0.26400
N310        N  0.02056497  0.40253383  0.31747741    -0.47200
H311        H  0.08507411  0.42953575  0.39408836     0.06400
C312        C  0.41398007  0.01829846  0.39160299    -0.07300
Cl313      Cl  0.49888681  0.48819311  0.35526185    -0.50300
C314        C  0.39475752  0.49595179  0.31255759     0.42200
H315        H  0.05959104  0.06991691  0.39686212     0.06400
N316        N  0.41200810  0.46580269  0.39168122    -0.47000
N317        N  0.50881551  0.28929746  0.50081428    -0.37000
N318        N  0.50879780  0.23893695  0.53106472    -0.57600
N319        N  0.50706421  0.18843923  0.50116302    -0.37000
N320        N  0.50436968  0.23854302  0.47089784    -0.57600
C321        C  0.50223361  0.30754959  0.51700537     0.26600
C322        C  0.50041445  0.30745118  0.48493112     0.26600
C323        C  0.50105418  0.17030844  0.51732121     0.26600
C324        C  0.49922021  0.16998785  0.48531000     0.26600
C325        C  0.51493377  0.26545061  0.54236328     0.35200
C326        C  0.51424705  0.21251038  0.54252984     0.35200
C327        C  0.50923714  0.26476663  0.45924654     0.35200
C328        C  0.50862784  0.21175699  0.45940106     0.35200
C329        C  0.48994899  0.33785295  0.51135120    -0.22300
C330        C  0.48878981  0.33778470  0.49109245    -0.22300
C331        C  0.48965010  0.13977848  0.51166295    -0.22300
C332        C  0.48865541  0.13950935  0.49144472    -0.22300
C333        C  0.52448136  0.25582024  0.56107873    -0.23300
C334        C  0.52401484  0.22223420  0.56118210    -0.23300
C335        C  0.51645290  0.25454990  0.44027054    -0.23300
C336        C  0.51584456  0.22101088  0.44034070    -0.23300
C337        C  0.50864127  0.29811642  0.53666218    -0.18700
C338        C  0.50446027  0.29777928  0.46505236    -0.18700
C339        C  0.50383001  0.17912724  0.46550301    -0.18700
C340        C  0.50732712  0.17997303  0.53695743    -0.18700
H341        H  0.48272751  0.35798518  0.52083443     0.14200
H342        H  0.48046398  0.35782868  0.48193925     0.14200
H343        H  0.48317159  0.11960040  0.52110129     0.14200
H344        H  0.48133474  0.11902270  0.48233635     0.14200
H345        H  0.53033556  0.27138837  0.57350604     0.12500
H346        H  0.52943118  0.20676695  0.57367919     0.12500
H347        H  0.52114139  0.26967493  0.42758789     0.12500
H348        H  0.51987320  0.20528700  0.42771875     0.12500
H349        H  0.52155306  0.26715611  0.50057090     0.25800
H350        H  0.51939493  0.21054912  0.50085597     0.25800
N351        N  0.19749920  0.49414777  0.50069016    -0.37000
N352        N  0.24853396  0.49304226  0.53050519    -0.57600
N353        N  0.29845363  0.49682915  0.50032257    -0.37000
N354        N  0.24743111  0.49536269  0.47053101    -0.57600
C355        C  0.17959196  0.48645563  0.51665579     0.26600
C356        C  0.17894258  0.48747898  0.48467155     0.26600
C357        C  0.31695275  0.48829975  0.51604078     0.26600
C358        C  0.31634396  0.48988763  0.48413741     0.26600
C359        C  0.22210851  0.49766306  0.54215261     0.35200
C360        C  0.27522436  0.49848970  0.54187174     0.35200
C361        C  0.22050901  0.50045161  0.45926449     0.35200
C362        C  0.27354573  0.50199688  0.45910392     0.35200
C363        C  0.14896589  0.47534086  0.51073230    -0.22300
C364        C  0.14861922  0.47584474  0.49050322    -0.22300
C365        C  0.34711661  0.47620846  0.50980595    -0.22300
C366        C  0.34673495  0.47722797  0.48961331    -0.22300
C367        C  0.23207474  0.50594286  0.56104124    -0.23300
C368        C  0.26576781  0.50659224  0.56083772    -0.23300
C369        C  0.22955004  0.51034625  0.44060218    -0.23300
C370        C  0.26319612  0.51142017  0.44051873    -0.23300
C371        C  0.18931943  0.49178383  0.53635904    -0.18700
C372        C  0.18805965  0.49350681  0.46502848    -0.18700
C373        C  0.30655116  0.49645558  0.46463739    -0.18700
C374        C  0.30793006  0.49292210  0.53584622    -0.18700
H375        H  0.12878280  0.46804548  0.51999184     0.14200
H376        H  0.12817963  0.46895542  0.48117303     0.14200
H377        H  0.36738534  0.46777136  0.51886384     0.14200
H378        H  0.36663771  0.46971406  0.48005828     0.14200
H379        H  0.21675093  0.51041231  0.57374826     0.12500
H380        H  0.28152338  0.51168444  0.57332504     0.12500
H381        H  0.21358417  0.51570765  0.42824076     0.12500
H382        H  0.27831830  0.51771285  0.42807112     0.12500
H383        H  0.21950012  0.50687230  0.50079174     0.25800
H384        H  0.27647665  0.51001234  0.50068057     0.25800
C385        C  0.00113825  0.21155566  0.26632303     0.86100
C386        C  0.03316848  0.21453319  0.25479424    -0.54200
C387        C  0.03476565  0.24023999  0.24187995     0.09000
C388        C  0.00331657  0.26208702  0.24282369     0.20000
C389        C  0.49778651  0.24449748  0.27730136    -0.54900
C390        C  0.99939425  0.27101987  0.26479660     0.09100
C391        C  0.47092232  0.21335170  0.25166401    -0.54400
C392        C  0.47167887  0.23970345  0.23932665     0.09700
H393        H  0.05324647  0.19745859  0.25735949     0.14200
H394        H  0.00325322  0.28296615  0.23277289    -0.00100
H395        H  0.49586412  0.24799556  0.29301447     0.14500
H396        H  0.45106485  0.19575035  0.25151922     0.14300
C397        C  0.49241844  0.36452675  0.29367318    -0.06500
C398        C  0.46495171  0.34396539  0.29327569    -0.17700
C399        C  0.46556161  0.31416190  0.28311870     0.10700
C400        C  0.49440588  0.30436919  0.27306006    -0.06500
C401        C  0.02263707  0.32511750  0.27269269    -0.17700
C402        C  0.02194111  0.35520627  0.28254284     0.10700
S403        S  0.42925570  0.28917580  0.28469727    -0.32700
S404        S  0.05772643  0.38057508  0.28053703    -0.32700
H405        H  0.04010822  0.41036238  0.28057754     0.31500
H406        H  0.43425173  0.27108717  0.26742848     0.28700
H407        H  0.44322169  0.35026512  0.30163769     0.19300
H408        H  0.04516541  0.31713435  0.26575379     0.19300
C409        C  0.49911711  0.12155582  0.30140949    -0.06500
C410        C  0.00457044  0.12038339  0.28135417    -0.17700
C411        C  0.00410477  0.14868194  0.26972286     0.10700
C412        C  0.49810673  0.17973396  0.27876236    -0.06500
C413        C  0.49369269  0.18061476  0.29935636    -0.17700
C414        C  0.49418978  0.15209497  0.31066628     0.10700
S415        S  0.00826632  0.14380486  0.24336150    -0.32700
S416        S  0.48794337  0.15653219  0.33682961    -0.32700
H417        H  0.50686897  0.12934538  0.34265294     0.28700
H418        H  0.01656452  0.11031285  0.24327824     0.28700
H419        H  0.00753919  0.09653409  0.27454295     0.19300
H420        H  0.48963715  0.20324692  0.30713704     0.19300
C421        C  0.50104986  0.10594450  0.41963372    -0.06500
C422        C  0.03475241  0.11467256  0.42855803    -0.17700
C423        C  0.03611470  0.13855189  0.44329664     0.10700
C424        C  0.50358168  0.15303668  0.45025789    -0.06500
C425        C  0.47332461  0.14214453  0.44300683    -0.17700
C426        C  0.47167024  0.11829305  0.42821041     0.10700
S427        S  0.07622389  0.15008159  0.45230774    -0.32700
S428        S  0.43130266  0.10428669  0.42159629    -0.32700
H429        H  0.44025518  0.07119536  0.42388500     0.28700
H430        H  0.06635334  0.16253867  0.47064188     0.28700
H431        H  0.05767822  0.10462067  0.42316608     0.19300
H432        H  0.45078762  0.15203453  0.44916166     0.19300
C433        C  0.50184302  0.32288830  0.44921268    -0.06500
C434        C  0.47544962  0.32083037  0.43593245    -0.17700
C435        C  0.47351734  0.34095152  0.41937916     0.10700
C436        C  0.49739969  0.36542629  0.41648215    -0.06500
C437        C  0.02266537  0.36891693  0.42935689    -0.17700
C438        C  0.02565148  0.34751973  0.44529949     0.10700
S439        S  0.44182579  0.33174223  0.40166724    -0.32700
S440        S  0.05937328  0.35385863  0.46215790    -0.32700
H441        H  0.06416496  0.32073033  0.46695511     0.28700
H442        H  0.46198901  0.33648546  0.38518941     0.28700
H443        H  0.45709052  0.30208278  0.43794317     0.19300
H444        H  0.04004280  0.38872079  0.42793525     0.19300
C445        C  0.11975494  0.48514088  0.41698694    -0.06500
C446        C  0.12004505  0.00699801  0.42941548    -0.17700
C447        C  0.14091519  0.00990777  0.44570903     0.10700
C448        C  0.16293197  0.49066689  0.44930581    -0.06500
C449        C  0.16493987  0.46364768  0.43660171    -0.17700
C450        C  0.14434634  0.46104456  0.42022523     0.10700
S451        S  0.13692654  0.04635567  0.46065087    -0.32700
S452        S  0.15317173  0.42821025  0.40323249    -0.32700
H453        H  0.14929875  0.44773879  0.38638165     0.28700
H454        H  0.16956096  0.04749353  0.46739668     0.28700
H455        H  0.10210522  0.02621675  0.42665387     0.19300
H456        H  0.18388690  0.44524486  0.43896094     0.19300
C457        C  0.37739163  0.49228087  0.41801033    -0.06500
C458        C  0.37893583  0.01395808  0.43138481    -0.17700
C459        C  0.35684193  0.01608081  0.44700229     0.10700
C460        C  0.33173309  0.49546139  0.44897765    -0.06500
C461        C  0.33014527  0.47029013  0.43493657    -0.17700
C462        C  0.35211819  0.46887231  0.41925801     0.10700
S463        S  0.36006788  0.05087342  0.46330906    -0.32700
S464        S  0.34495547  0.43806941  0.40073890    -0.32700
H465        H  0.34870963  0.45978670  0.38491949     0.28700
H466        H  0.32622726  0.05401820  0.46700689     0.28700
H467        H  0.39739064  0.03268382  0.43000078     0.19300
H468        H  0.31085109  0.45223740  0.43586397     0.19300
C469        C  0.11915287  0.48890490  0.58340740    -0.06500
C470        C  0.12750256  0.01557560  0.57425186    -0.17700
C471        C  0.14926326  0.01655687  0.55851079     0.10700
C472        C  0.16381688  0.49124587  0.55179276    -0.06500
C473        C  0.15420987  0.46110113  0.55951848    -0.17700
C474        C  0.13163284  0.45944930  0.57502633     0.10700
S475        S  0.15772999  0.05602192  0.54794477    -0.32700
S476        S  0.11965386  0.41954216  0.58367998    -0.32700
H477        H  0.13292453  0.40123250  0.56800058     0.28700
H478        H  0.16313635  0.04475108  0.52868662     0.28700
H479        H  0.11647824  0.03841621  0.57893102     0.19300
H480        H  0.16475967  0.43886167  0.55342818     0.19300
C481        C  0.37951917  0.48166384  0.58200136    -0.06500
C482        C  0.37945763  0.01050716  0.57140543    -0.17700
C483        C  0.35693205  0.01433346  0.55597564     0.10700
C484        C  0.33357003  0.48946401  0.55123714    -0.06500
C485        C  0.33238813  0.46208569  0.56352393    -0.17700
C486        C  0.35457124  0.45819961  0.57905980     0.10700
S487        S  0.35790994  0.05190675  0.54217902    -0.32700
S488        S  0.34760875  0.42432332  0.59529654    -0.32700
H489        H  0.35041727  0.44337266  0.61249882     0.28700
H490        H  0.32391036  0.05380940  0.53855922     0.28700
H491        H  0.39695465  0.02985041  0.57421165     0.19300
H492        H  0.31315921  0.44419212  0.56139539     0.19300
C493        C  0.50185802  0.10667309  0.58217459    -0.06500
C494        C  0.47524006  0.12813972  0.57883885    -0.17700
C495        C  0.47649800  0.15211905  0.56416901     0.10700
C496        C  0.50498820  0.15493969  0.55265226    -0.06500
C497        C  0.53150069  0.13354836  0.55579609    -0.17700
C498        C  0.53014001  0.10927352  0.57020399     0.10700
S499        S  0.44170714  0.17902408  0.56006645    -0.32700
S500        S  0.56478715  0.08169271  0.57183693    -0.32700
H501        H  0.54566299  0.05352406  0.57443913     0.28700
H502        H  0.42081578  0.16485442  0.57400672     0.28700
H503        H  0.45358615  0.12650875  0.58793003     0.19300
H504        H  0.55321009  0.13549204  0.54671768     0.19300
C505        C  0.50312357  0.36601787  0.58525171    -0.06500
C506        C  0.03083133  0.36230448  0.57320817    -0.17700
C507        C  0.03222807  0.34153667  0.55683872     0.10700
C508        C  0.50681305  0.32323419  0.55248977    -0.06500
C509        C  0.47815685  0.32515427  0.56378673    -0.17700
C510        C  0.47577935  0.34642622  0.57999587     0.10700
S511        S  0.07180986  0.33437884  0.54571130    -0.32700
S512        S  0.43810584  0.34684953  0.59400096    -0.32700
H513        H  0.41920208  0.32822834  0.58075628     0.28700
H514        H  0.06005437  0.32933750  0.52650232     0.28700
H515        H  0.05340345  0.37349373  0.57815204     0.19300
H516        H  0.45785006  0.30929405  0.56005480     0.19300
C517        C  0.12150406  0.24637730  0.20420745    -0.06500
C518        C  0.10277651  0.27468605  0.20796957    -0.17700
C519        C  0.07507637  0.27440551  0.22032467     0.10700
C520        C  0.06411569  0.24421700  0.22836469    -0.06500
C521        C  0.08292335  0.21587811  0.22395950    -0.17700
C522        C  0.11223663  0.21702289  0.21344654     0.10700
S523        S  0.05642298  0.31349313  0.22605697    -0.32700
S524        S  0.13771335  0.18070595  0.21434216    -0.32700
H525        H  0.16736201  0.19800298  0.21609849     0.28700
H526        H  0.07453223  0.33299117  0.21309924     0.28700
H527        H  0.11029626  0.29745962  0.20138469     0.19300
H528        H  0.07555281  0.19211107  0.22914769     0.19300
C529        C  0.38673281  0.25150641  0.20125451    -0.06500
C530        C  0.40104786  0.27923893  0.20990992    -0.17700
C531        C  0.42942713  0.27697244  0.22171191     0.10700
C532        C  0.44453695  0.24592012  0.22479939    -0.06500
C533        C  0.43122035  0.21857808  0.21518140    -0.17700
C534        C  0.40247627  0.22071025  0.20398782     0.10700
S535        S  0.44427344  0.31404453  0.23314300    -0.32700
S536        S  0.38717899  0.18257752  0.19436158    -0.32700
H537        H  0.35685775  0.18594273  0.20407452     0.28700
H538        H  0.41858833  0.33511717  0.22727278     0.28700
H539        H  0.38957056  0.30289687  0.20778127     0.19300
H540        H  0.44274398  0.19475296  0.21698438     0.19300
C541        C  0.25614865  0.13743079  0.08279303    -0.06500
C542        C  0.23115085  0.13862029  0.06855398    -0.17700
C543        C  0.22912526  0.11497659  0.05371180     0.10700
C544        C  0.25329818  0.09005685  0.05262010    -0.06500
C545        C  0.27827702  0.08873660  0.06685177    -0.17700
C546        C  0.27946578  0.11152771  0.08220614     0.10700
S547        S  0.19497404  0.11776861  0.03678681    -0.32700
S548        S  0.30953029  0.10430059  0.10125958    -0.32700
H549        H  0.28812253  0.11245649  0.11675370     0.28700
H550        H  0.19213573  0.08394086  0.03338281     0.28700
H551        H  0.21286216  0.15802685  0.06908086     0.19300
H552        H  0.29639806  0.06915024  0.06629186     0.19300
C553        C  0.24780465  0.37958764  0.08531423    -0.06500
C554        C  0.27315498  0.40244634  0.08336878    -0.17700
C555        C  0.27457549  0.42353660  0.06718873     0.10700
C556        C  0.24948333  0.42280117  0.05271105    -0.06500
C557        C  0.22486290  0.39910558  0.05420059    -0.17700
C558        C  0.22424042  0.37701884  0.06994912     0.10700
S559        S  0.30887780  0.45112565  0.06599472    -0.32700
S560        S  0.19391332  0.34514113  0.06877982    -0.32700
H561        H  0.21472672  0.32073984  0.07659987     0.28700
H562        H  0.30989309  0.45276764  0.04536709     0.28700
H563        H  0.29188839  0.40422321  0.09468734     0.19300
H564        H  0.20602394  0.39772728  0.04292332     0.19300
C565        C  0.25378168  0.14293007  0.92079868    -0.06500
C566        C  0.28000748  0.12038976  0.92211422    -0.17700
C567        C  0.28104174  0.09633219  0.93673665     0.10700
C568        C  0.25507988  0.09419855  0.95037718    -0.06500
C569        C  0.22909099  0.11690678  0.94929014    -0.17700
C570        C  0.22830412  0.14132232  0.93486400     0.10700
S571        S  0.31589726  0.06876616  0.93701149    -0.32700
S572        S  0.19454967  0.17009536  0.93562741    -0.32700
H573        H  0.21355853  0.19746397  0.93074797     0.28700
H574        H  0.31617008  0.06360212  0.95742262     0.28700
H575        H  0.29975557  0.12114790  0.91151194     0.19300
H576        H  0.20924598  0.11559268  0.95982118     0.19300
C577        C  0.24820775  0.42239847  0.94915184    -0.06500
C578        C  0.27590786  0.42054758  0.93702813    -0.17700
C579        C  0.27604013  0.40114577  0.92007289     0.10700
C580        C  0.24831390  0.38177893  0.91548776    -0.06500
C581        C  0.22118336  0.38261575  0.92823484    -0.17700
C582        C  0.22055871  0.40309013  0.94474931     0.10700
S583        S  0.31135038  0.40438042  0.90434951    -0.32700
S584        S  0.18347083  0.40389414  0.95922490    -0.32700
H585        H  0.18609707  0.43617138  0.96620879     0.28700
H586        H  0.29247254  0.40953032  0.88723474     0.28700
H587        H  0.29691591  0.43584365  0.94024653     0.19300
H588        H  0.19988025  0.36770876  0.92518588     0.19300
C589        C  0.49702751  0.17940488  0.72514378    -0.06500
C590        C  0.01967193  0.15332181  0.72671926    -0.17700
C591        C  0.01852790  0.12505626  0.71496497     0.10700
C592        C  0.49583964  0.12251921  0.70092969    -0.06500
C593        C  0.47313817  0.14796697  0.69795738    -0.17700
C594        C  0.47322469  0.17615725  0.70984771     0.10700
S595        S  0.04720217  0.09186375  0.71963692    -0.32700
S596        S  0.44238374  0.20738383  0.70517389    -0.32700
H597        H  0.42349788  0.18963282  0.69150120     0.28700
H598        H  0.06904287  0.10960545  0.73162058     0.28700
H599        H  0.03788067  0.15366877  0.73814781     0.19300
H600        H  0.45555038  0.14591309  0.68604021     0.19300
C601        C  0.50209323  0.36199675  0.70726279    -0.06500
C602        C  0.03021173  0.34214880  0.70614838    -0.17700
C603        C  0.03151579  0.31302872  0.71685643     0.10700
C604        C  0.50361544  0.30288718  0.72885695    -0.06500
C605        C  0.47732493  0.32508206  0.73093144    -0.17700
C606        C  0.47625664  0.35446300  0.72029932     0.10700
S607        S  0.06919684  0.28943641  0.71567572    -0.32700
S608        S  0.44130263  0.38115619  0.72402052    -0.32700
H609        H  0.45895156  0.41042380  0.72215680     0.28700
H610        H  0.06518403  0.27222951  0.73327158     0.28700
H611        H  0.05140539  0.34855844  0.69747574     0.19300
H612        H  0.45707747  0.31915621  0.74052309     0.19300
C613        C  0.11050776  0.25188375  0.80145158    -0.06500
C614        C  0.08938994  0.22524037  0.80399084    -0.17700
C615        C  0.06016585  0.22245671  0.79326440     0.10700
C616        C  0.05163981  0.24650174  0.77923380    -0.06500
C617        C  0.07154694  0.27421070  0.77748079    -0.17700
C618        C  0.10104194  0.27695421  0.78818191     0.10700
S619        S  0.03470439  0.18751952  0.79821152    -0.32700
S620        S  0.12648058  0.31179817  0.78311143    -0.32700
H621        H  0.15619094  0.29392831  0.78311720     0.28700
H622        H  0.00482317  0.20273658  0.79296910     0.28700
H623        H  0.09544715  0.20635339  0.81454435     0.19300
H624        H  0.06522153  0.29282919  0.76679381     0.19300
C625        C  0.43713548  0.25106967  0.77402272    -0.06500
C626        C  0.44065434  0.25021039  0.79454966    -0.17700
C627        C  0.41326423  0.25326833  0.80695842     0.10700
C628        C  0.38150750  0.25707355  0.79868445    -0.06500
C629        C  0.37818108  0.25921282  0.77824639    -0.17700
C630        C  0.40547053  0.25637932  0.76585420     0.10700
S631        S  0.42046379  0.25151502  0.83311845    -0.32700
S632        S  0.39779061  0.25956992  0.73979102    -0.32700
H633        H  0.42964796  0.26833036  0.73427539     0.28700
H634        H  0.39367421  0.27139487  0.83861293     0.28700
H635        H  0.46478636  0.24623902  0.80094977     0.19300
H636        H  0.35396056  0.26264686  0.77184291     0.19300
C637        C  0.36110082  0.49329095  0.70012455    -0.06500
C638        C  0.34630575  0.46524415  0.70800597    -0.17700
C639        C  0.31820461  0.46739452  0.72005374     0.10700
C640        C  0.30438654  0.49850545  0.72447592    -0.06500
C641        C  0.31966421  0.02801611  0.71624586    -0.17700
C642        C  0.34882430  0.02626621  0.70555341     0.10700
S643        S  0.30141934  0.43022468  0.72984031    -0.32700
S644        S  0.36699140  0.06490820  0.69926735    -0.32700
H645        H  0.39772906  0.05663270  0.70752643     0.28700
H646        H  0.32239378  0.40806909  0.72004731     0.28700
H647        H  0.35705873  0.44148463  0.70498915     0.19300
H648        H  0.30900316  0.05202188  0.71890072     0.19300
C649        C  0.19096564  0.50628461  0.72348816    -0.06500
C650        C  0.17310388  0.47706097  0.72418719    -0.17700
C651        C  0.14370530  0.47332313  0.71355937     0.10700
C652        C  0.13219669  0.49897228  0.70132913    -0.06500
C653        C  0.15167276  0.02608511  0.69846939    -0.17700
C654        C  0.18107436  0.02956251  0.70893198     0.10700
S655        S  0.12114422  0.43613072  0.71731354    -0.32700
S656        S  0.20542744  0.06527365  0.70395880    -0.32700
H657        H  0.23593877  0.05049483  0.70831117     0.28700
H658        H  0.09024680  0.45175418  0.71830672     0.28700
H659        H  0.18108899  0.45763144  0.73392556     0.19300
H660        H  0.14475129  0.04506833  0.68817045     0.19300
C661        C  0.24697628  0.12774144  0.79979026    -0.06500
C662        C  0.22220123  0.10438632  0.80204584    -0.17700
C663        C  0.22110964  0.07602196  0.79024076     0.10700
C664        C  0.24621321  0.07002485  0.77613463    -0.06500
C665        C  0.26926953  0.09512530  0.77303472    -0.17700
C666        C  0.26980492  0.12356219  0.78446865     0.10700
S667        S  0.18679509  0.04854715  0.79307882    -0.32700
S668        S  0.29901887  0.15446637  0.77767969    -0.32700
H669        H  0.27792205  0.18111104  0.78168351     0.28700
H670        H  0.17268135  0.06383125  0.80961264     0.28700
H671        H  0.20377083  0.10826380  0.81325760     0.19300
H672        H  0.28633572  0.09412281  0.76101180     0.19300
C673        C  0.24099208  0.44654390  0.77319363    -0.06500
C674        C  0.27016819  0.42866282  0.77559953    -0.17700
C675        C  0.27066877  0.39839079  0.78507439     0.10700
C676        C  0.24159301  0.38641123  0.79376313    -0.06500
C677        C  0.21221257  0.40439771  0.79117790    -0.17700
C678        C  0.21151697  0.43417399  0.78102064     0.10700
S679        S  0.30926329  0.37641576  0.78522093    -0.32700
S680        S  0.17231107  0.45522884  0.77950516    -0.32700
H681        H  0.18147459  0.48204074  0.76812421     0.28700
H682        H  0.29494707  0.34574677  0.78150462     0.28700
H683        H  0.29300658  0.43864570  0.77028719     0.19300
H684        H  0.18957416  0.39588460  0.79756919     0.19300
C685        C  0.13365903  0.26805159  0.08154795    -0.06500
C686        C  0.11058347  0.29384231  0.08198533    -0.17700
C687        C  0.08679585  0.29730082  0.06721180     0.10700
C688        C  0.08505334  0.27374215  0.05201389    -0.06500
C689        C  0.10887214  0.24881415  0.05107834    -0.17700
C690        C  0.13368324  0.24631665  0.06527484     0.10700
S691        S  0.05934731  0.33213598  0.06856003    -0.32700
S692        S  0.16552858  0.21625406  0.06093730    -0.32700
H693        H  0.19103326  0.23567718  0.06854895     0.28700
H694        H  0.05465958  0.33526871  0.04816076     0.28700
H695        H  0.11081665  0.31130773  0.09402072     0.19300
H696        H  0.10833189  0.23139816  0.03900898     0.19300
C697        C  0.36797814  0.26922168  0.08276499    -0.06500
C698        C  0.38521996  0.29815880  0.07891544    -0.17700
C699        C  0.40691535  0.30028965  0.06313244     0.10700
C700        C  0.41196306  0.27280220  0.05090049    -0.06500
C701        C  0.39424241  0.24417848  0.05425072    -0.17700
C702        C  0.37217702  0.24200743  0.06995205     0.10700
S703        S  0.42838807  0.33830534  0.05984469    -0.32700
S704        S  0.34981260  0.20435087  0.07308362    -0.32700
H705        H  0.35932245  0.18926849  0.05534546     0.28700
H706        H  0.43283454  0.33520721  0.03945181     0.28700
H707        H  0.38239837  0.31925197  0.08846121     0.19300
H708        H  0.39851609  0.22319090  0.04478983     0.19300
C709        C  0.12666128  0.26740143  0.91817957    -0.06500
C710        C  0.12699288  0.24283150  0.93254992    -0.17700
C711        C  0.10540077  0.24371346  0.94845892     0.10700
C712        C  0.08311972  0.27016815  0.95036518    -0.06500
C713        C  0.08325294  0.29527516  0.93640247    -0.17700
C714        C  0.10436657  0.29403523  0.92024464     0.10700
S715        S  0.10751786  0.21011716  0.96559309    -0.32700
S716        S  0.09994367  0.32615877  0.90235578    -0.32700
H717        H  0.09896582  0.30449143  0.88622202     0.28700
H718        H  0.07488066  0.21172132  0.97214798     0.28700
H719        H  0.14405091  0.22249171  0.93134233     0.19300
H720        H  0.06583943  0.31538597  0.93774064     0.19300
C721        C  0.41502264  0.26819536  0.94826374    -0.06500
C722        C  0.41769986  0.29284813  0.93408566    -0.17700
C723        C  0.39736433  0.29340397  0.91746436     0.10700
C724        C  0.37255913  0.26956285  0.91527570    -0.06500
C725        C  0.36936385  0.24540862  0.92974369    -0.17700
C726        C  0.39042208  0.24424986  0.94605609     0.10700
S727        S  0.40638645  0.32350597  0.89901999    -0.32700
S728        S  0.38478674  0.21139220  0.96330639    -0.32700
H729        H  0.41795099  0.20819212  0.96885265     0.28700
H730        H  0.40157041  0.30208171  0.88302752     0.28700
H731        H  0.43686028  0.31097802  0.93557648     0.19300
H732        H  0.35044851  0.22703101  0.92824727     0.19300
C733        C  0.36439625  0.49732084  0.30044342    -0.06500
C734        C  0.34373680  0.02168291  0.30119419    -0.17700
C735        C  0.31462687  0.02473623  0.29044425     0.10700
C736        C  0.30640968  0.50344584  0.27754262    -0.06500
C737        C  0.32667051  0.47566652  0.27575963    -0.17700
C738        C  0.35558644  0.47238257  0.28694345     0.10700
S739        S  0.28788556  0.05845752  0.29654013    -0.32700
S740        S  0.38097593  0.43679166  0.28242161    -0.32700
H741        H  0.41094415  0.45361922  0.28355084     0.28700
H742        H  0.25927982  0.04010015  0.29367079     0.28700
H743        H  0.34905280  0.03994657  0.31232505     0.19300
H744        H  0.32089927  0.45720566  0.26488931     0.19300
C745        C  0.19150403  0.50376422  0.27702476    -0.06500
C746        C  0.17824658  0.47219514  0.27778554    -0.17700
C747        C  0.15002500  0.46530967  0.28893154     0.10700
C748        C  0.13487091  0.49059049  0.30018577    -0.06500
C749        C  0.14973876  0.02285406  0.29906602    -0.17700
C750        C  0.17771276  0.02966996  0.28788468     0.10700
S751        S  0.13334001  0.42462837  0.28744096    -0.32700
S752        S  0.19624844  0.06957112  0.29018505    -0.32700
H753        H  0.17057404  0.08485312  0.30063772     0.28700
H754        H  0.15686571  0.41093615  0.27466843     0.28700
H755        H  0.18936820  0.45308003  0.26890987     0.19300
H756        H  0.14018327  0.04171939  0.30873430     0.19300
C757        C  0.25052475  0.06847892  0.22282418    -0.06500
C758        C  0.24465871  0.06655673  0.20233046    -0.17700
C759        C  0.24596747  0.09409278  0.19023141     0.10700
C760        C  0.25271586  0.12492165  0.19849574    -0.06500
C761        C  0.25748495  0.12765470  0.21877205    -0.17700
C762        C  0.25571798  0.10018761  0.23107436     0.10700
S763        S  0.23867380  0.08819884  0.16426754    -0.32700
S764        S  0.25917924  0.10674060  0.25729568    -0.32700
H765        H  0.25906831  0.14116458  0.25707742     0.28700
H766        H  0.26103503  0.11192677  0.15793831     0.28700
H767        H  0.23832350  0.04392416  0.19521394     0.19300
H768        H  0.26195857  0.15165840  0.22500158     0.19300
C769        C  0.24487913  0.44300114  0.23110668    -0.06500
C770        C  0.27039001  0.42013320  0.23387191    -0.17700
C771        C  0.27073583  0.39009351  0.22369107     0.10700
C772        C  0.24521189  0.38281777  0.21018394    -0.06500
C773        C  0.21886509  0.40503768  0.20834264    -0.17700
C774        C  0.21829337  0.43466652  0.21867182     0.10700
S775        S  0.30450040  0.36233882  0.22846105    -0.32700
S776        S  0.18326361  0.46127668  0.21476948    -0.32700
H777        H  0.18372276  0.47543014  0.23360183     0.28700
H778        H  0.28634386  0.33357434  0.22550813     0.28700
H779        H  0.29075870  0.42610789  0.24343557     0.19300
H780        H  0.19889266  0.39997269  0.19824531     0.19300
C781        C  0.24944373  0.53670917  0.23677312     0.86100
C782        C  0.27965921  0.53448004  0.25036037    -0.54200
C783        C  0.27976447  0.00766227  0.26147911     0.09000
C784        C  0.24850137  0.98675976  0.25932879     0.20000
C785        C  0.24914325  0.50295793  0.22643541    -0.54900
C786        C  0.24670784  0.97767187  0.23735344     0.09100
C787        C  0.21956418  0.53569238  0.25049920    -0.54400
C788        C  0.21967905  0.01119859  0.26230828     0.09700
H789        H  0.29964896  0.55191597  0.24999143     0.14200
H790        H  0.24788821  0.96533269  0.26930469    -0.00100
H791        H  0.24831414  0.00022659  0.20943162     0.14500
H792        H  0.19957093  0.55337491  0.24953108     0.14300
N793        N  0.44783656  0.76925068  0.00132223    -0.37000
N794        N  0.99641121  0.76977353  0.97112321    -0.57600
N795        N  0.04704655  0.76817438  0.00096576    -0.37000
N796        N  0.99746109  0.77039924  0.03137216    -0.57600
C797        C  0.42932222  0.77631292  0.98529110     0.26600
C798        C  0.42976145  0.77680855  0.01737057     0.26600
C799        C  0.06498526  0.77538097  0.98489268     0.26600
C800        C  0.06554474  0.77551323  0.01690899     0.26600
C801        C  0.47126443  0.76321522  0.95991878     0.35200
C802        C  0.02270808  0.76311928  0.95966852     0.35200
C803        C  0.47255981  0.76609837  0.04284671     0.35200
C804        C  0.02415206  0.76335541  0.04245242     0.35200
C805        C  0.39893004  0.78824995  0.99122111    -0.22300
C806        C  0.39917094  0.78846768  0.01150319    -0.22300
C807        C  0.09532250  0.78733009  0.99066123    -0.22300
C808        C  0.09564241  0.78751486  0.01091559    -0.22300
C809        C  0.48067809  0.75210981  0.94146477    -0.23300
C810        C  0.01255237  0.75314484  0.94114598    -0.23300
C811        C  0.48261987  0.75724252  0.06160397    -0.23300
C812        C  0.01470299  0.75311623  0.06097495    -0.23300
C813        C  0.43854153  0.77005929  0.96556745    -0.18700
C814        C  0.43963359  0.77168077  0.03710037    -0.18700
C815        C  0.05679107  0.76913789  0.03660330    -0.18700
C816        C  0.05564847  0.76841780  0.96530645    -0.18700
H817        H  0.37855380  0.79557677  0.98190881     0.14200
H818        H  0.37906238  0.79612507  0.02086542     0.14200
H819        H  0.11535109  0.79457381  0.98126386     0.14200
H820        H  0.11594547  0.79503153  0.02017460     0.14200
H821        H  0.46494504  0.74558167  0.92921570     0.12500
H822        H  0.02781271  0.74676944  0.92869103     0.12500
H823        H  0.46730534  0.75196852  0.07414368     0.12500
H824        H  0.03045789  0.74636167  0.07318347     0.12500
H825        H  0.46999784  0.75645167  0.00135359     0.25800
H826        H  0.02536187  0.75495369  0.00105710     0.25800
C827        C  0.24889436  0.53855752  0.76404410     0.86100
C828        C  0.24554500  0.50674707  0.77570531    -0.54200
C829        C  0.24276408  0.97924598  0.76347136     0.09000
C830        C  0.24557973  0.98600639  0.74117139     0.20000
C831        C  0.27962540  0.53177566  0.75142342    -0.54900
C832        C  0.27760458  0.00589276  0.73894695     0.09100
C833        C  0.22015757  0.53855021  0.74939107    -0.54400
C834        C  0.21781800  0.01080157  0.73685083     0.09700
H835        H  0.24360639  0.00565633  0.79090116     0.14200
H836        H  0.24398160  0.96387955  0.73176122    -0.00100
H837        H  0.30184409  0.54605008  0.75207371     0.14500
H838        H  0.20215964  0.55829812  0.74868223     0.14300
C839        C  0.99634402  0.71008011  0.73830072     0.86100
C840        C  0.02456481  0.71274044  0.75351231    -0.54200
C841        C  0.02393872  0.74042873  0.76481077     0.09000
C842        C  0.99527928  0.76392575  0.75964068     0.20000
C843        C  0.46599041  0.71450769  0.75094314    -0.54900
C844        C  0.46653387  0.74265297  0.76179082     0.09100
C845        C  0.99929678  0.74179137  0.72634755    -0.54400
C846        C  0.99872683  0.76991412  0.73734933     0.09700
H847        H  0.04420449  0.69517825  0.75556847     0.14200
H848        H  0.99470729  0.78669208  0.76862588    -0.00100
H849        H  0.44510994  0.69811436  0.75094730     0.14500
H850        H  0.00152255  0.74199412  0.71044374     0.14300
N851        N  0.24846957  0.95651049  0.00043479    -0.37000
N852        N  0.24917536  0.50675312  0.03035972    -0.57600
N853        N  0.25023990  0.55732052  0.99976035    -0.37000
N854        N  0.25076620  0.50708969  0.97004843    -0.57600
C855        C  0.25557610  0.93729119  0.01612772     0.26600
C856        C  0.25484765  0.93883503  0.98402226     0.26600
C857        C  0.25751273  0.57530186  0.01588644     0.26600
C858        C  0.25811450  0.57545836  0.98388038     0.26600
C859        C  0.24554451  0.97907272  0.04198083     0.35200
C860        C  0.24406725  0.53384534  0.04142149     0.35200
C861        C  0.24482365  0.98254991  0.95901968     0.35200
C862        C  0.24726976  0.53351165  0.95824646     0.35200
C863        C  0.26622683  0.90684477  0.00955880    -0.22300
C864        C  0.26568442  0.90778655  0.98929600    -0.22300
C865        C  0.26978678  0.60538459  0.01021304    -0.22300
C866        C  0.27008397  0.60550582  0.98999497    -0.22300
C867        C  0.23507125  0.98884178  0.06046175    -0.23300
C868        C  0.23398632  0.52513659  0.06011900    -0.23300
C869        C  0.23590619  0.99308475  0.94034709    -0.23300
C870        C  0.23896116  0.52380388  0.93936722    -0.23300
C871        C  0.25123676  0.94623424  0.03614335    -0.18700
C872        C  0.24923868  0.94938045  0.96446491    -0.18700
C873        C  0.25333438  0.56616258  0.96403696    -0.18700
C874        C  0.25118029  0.56616573  0.03551559    -0.18700
H875        H  0.27346539  0.88604930  0.01842227     0.14200
H876        H  0.27233867  0.88781229  0.97954862     0.14200
H877        H  0.27734546  0.62536903  0.01965724     0.14200
H878        H  0.27807338  0.62549810  0.98084356     0.14200
H879        H  0.22814487  0.97337451  0.07260464     0.12500
H880        H  0.22844995  0.54126527  0.07235317     0.12500
H881        H  0.22936744  0.97815037  0.92776488     0.12500
H882        H  0.23495391  0.53920606  0.92666449     0.12500
H883        H  0.23661679  0.97916671  0.00076794     0.25800
H884        H  0.23718910  0.53562889  0.99968306     0.25800
C885        C  0.34988360  0.76986731  0.89876930     0.42100
N886        N  0.31856929  0.75147465  0.87586212     0.00900
C887        C  0.21360707  0.84299927  0.81644784    -0.06900
H888        H  0.19160555  0.85076513  0.89280038     0.06400
C889        C  0.16440500  0.73271066  0.89292749    -0.07300
Co890      Co  0.28777442  0.80562178  0.85245121     0.74200
N891        N  0.22826013  0.82891681  0.87393466    -0.26500
Co892      Co  0.20251572  0.80030634  0.85382916     0.74100
C893        C  0.14989814  0.76262537  0.90137375     0.42200
N894        N  0.23822136  0.69448741  0.87862385     0.00600
N895        N  0.18015184  0.77500281  0.87665870     0.00700
N896        N  0.26883843  0.84657665  0.81658221    -0.47300
H897        H  0.33729824  0.82337434  0.89091168     0.06400
N898        N  0.26057214  0.83085901  0.87345713     0.01000
N899        N  0.17713964  0.77059460  0.83395788     0.00700
C900        C  0.14066417  0.75293585  0.81350529     0.42300
N901        N  0.27055884  0.69663329  0.87815729    -0.25900
C902        C  0.33530208  0.78979011  0.81778786    -0.06800
N903        N  0.33846218  0.74216664  0.89031271    -0.47000
N904        N  0.15382171  0.78023504  0.82152039    -0.47200
C905        C  0.35240383  0.76048384  0.81076219     0.42100
N906        N  0.25849665  0.82700790  0.83065704     0.00900
N907        N  0.26883127  0.69268772  0.83543567    -0.25900
N908        N  0.31604770  0.78359169  0.87442539    -0.26400
N909        N  0.23645276  0.69058068  0.83578549     0.00600
H910        H  0.30612364  0.66686736  0.81910353     0.06500
H911        H  0.15281908  0.69926467  0.82136551     0.06500
N912        N  0.22618891  0.82474562  0.83105291    -0.26500
N913        N  0.18260825  0.74286370  0.87778075    -0.26100
N914        N  0.31805203  0.74695131  0.83314711     0.00900
C915        C  0.24658780  0.86135752  0.89775980     0.42300
C916        C  0.28321907  0.67898031  0.89301186    -0.07300
N917        N  0.17986547  0.73843169  0.83500992    -0.26100
H918        H  0.16067430  0.70740250  0.89682487     0.06500
N919        N  0.27254629  0.84985522  0.88751354    -0.47300
H920        H  0.30912052  0.67526122  0.89594940     0.06500
C921        C  0.25124431  0.65710537  0.81300973     0.42200
C922        C  0.33476023  0.79737019  0.88838805    -0.06800
Co923      Co  0.29443965  0.72144267  0.85565294     0.73800
N924        N  0.22781417  0.67595248  0.89323273    -0.47000
C925        C  0.24208938  0.85754413  0.80668262     0.42400
N926        N  0.34077144  0.73495210  0.82112070    -0.47000
Co927      Co  0.20891758  0.71605111  0.85678558     0.73900
C928        C  0.15789102  0.72513388  0.82262020    -0.07300
C929        C  0.21712506  0.84734096  0.88887088    -0.06900
N930        N  0.31473184  0.77904033  0.83167670    -0.26400
N931        N  0.16096844  0.78771249  0.89044430    -0.47200
H932        H  0.18766900  0.84728059  0.81397493     0.06400
C933        C  0.28042252  0.67221371  0.82164223    -0.07300
Cl934      Cl  0.24840675  0.76079073  0.85457227    -0.50300
C935        C  0.25476484  0.66560856  0.90318602     0.42200
H936        H  0.34037672  0.81518342  0.81467870     0.06400
N937        N  0.22499062  0.66929229  0.82277698    -0.47000
C938        C  0.35241335  0.75481307  0.19169687     0.42100
N939        N  0.31791943  0.74390748  0.16856515     0.00900
C940        C  0.21857670  0.84304227  0.11156903    -0.06900
H941        H  0.18857360  0.84460797  0.18704516     0.06400
C942        C  0.16287428  0.72038255  0.17817475    -0.07300
Co943      Co  0.28938693  0.80324861  0.14931739     0.74200
N944        N  0.22759996  0.82227764  0.17024970    -0.26500
Co945      Co  0.20428411  0.79734213  0.14726333     0.74100
C946        C  0.14788746  0.74725717  0.18935243     0.42200
N947        N  0.23783979  0.68694814  0.16455640     0.00600
N948        N  0.17997995  0.76673787  0.16714576     0.00700
N949        N  0.27392237  0.84602157  0.11308457    -0.47300
H950        H  0.34258821  0.81045271  0.18825008     0.06400
N951        N  0.25989660  0.82474821  0.17108239     0.01000
N952        N  0.18235311  0.77165304  0.12405622     0.00700
C953        C  0.15502878  0.75894996  0.09804923     0.42300
N954        N  0.27010422  0.68955521  0.16560699    -0.25900
C955        C  0.33594378  0.79424143  0.11339832    -0.06800
N956        N  0.33926569  0.73061595  0.18084052    -0.47000
N957        N  0.16426064  0.78421005  0.10967970    -0.47200
C958        C  0.34972301  0.76642702  0.10254038     0.42100
N959        N  0.26210776  0.82852524  0.12781852     0.00900
N960        N  0.27274885  0.69390391  0.12295083    -0.25900
N961        N  0.31597695  0.77603570  0.17026833    -0.26400
N962        N  0.24050902  0.69149329  0.12199553     0.00600
H963        H  0.31212386  0.67233305  0.10617822     0.06500
H964        H  0.16451312  0.70380114  0.10307517     0.06500
N965        N  0.22977623  0.82627187  0.12719440    -0.26500
N966        N  0.18254297  0.73470277  0.16518988    -0.26100
N967        N  0.31992640  0.74871512  0.12607784     0.00900
C968        C  0.24264125  0.85473948  0.19515281     0.42300
C969        C  0.28136767  0.66921788  0.17956157    -0.07300
N970        N  0.18519792  0.73954908  0.12271568    -0.26100
H971        H  0.15779498  0.69450689  0.17825799     0.06500
N972        N  0.26984862  0.84415055  0.18558108    -0.47300
H973        H  0.30693266  0.66424150  0.18285351     0.06500
C974        C  0.25812318  0.66100204  0.09852679     0.42200
C975        C  0.33683401  0.78534636  0.18462662    -0.06800
Co976      Co  0.29559890  0.71869742  0.14580508     0.73800
N977        N  0.22607009  0.66522647  0.17701053    -0.47000
C978        C  0.24796046  0.85556905  0.10192415     0.42400
N979        N  0.33899657  0.73904667  0.11140561    -0.47000
Co980      Co  0.21105363  0.71276803  0.14354739     0.73900
C981        C  0.16831223  0.72916104  0.10698451    -0.07300
C982        C  0.21456031  0.84037548  0.18479602    -0.06900
N983        N  0.31769183  0.78086380  0.12754395    -0.26400
N984        N  0.15927034  0.77532223  0.18132625    -0.47200
H985        H  0.19303025  0.84588042  0.10746370     0.06400
C986        C  0.28610061  0.67573055  0.10859217    -0.07300
Cl987      Cl  0.25008821  0.75804487  0.14654252    -0.50300
C988        C  0.25206070  0.65350521  0.18721224     0.42200
H989        H  0.33875297  0.82018274  0.11090067     0.06400
N990        N  0.23067380  0.67206827  0.10754751    -0.47000
C991        C  0.10033344  0.99684458  0.68959350     0.42100
N992        N  0.06615761  0.97870664  0.66799271     0.00900
C993        C  0.46646632  0.56968397  0.60745763    -0.06900
H994        H  0.43639670  0.58182579  0.68103776     0.06400
C995        C  0.41003356  0.96163450  0.68217388    -0.07300
Co996      Co  0.03690876  0.53400661  0.64504531     0.74200
N997        N  0.47521027  0.55629803  0.66560848    -0.26500
Co998      Co  0.45226397  0.52744949  0.64447422     0.74100
C999        C  0.39351875  0.99186289  0.68884941     0.42200
N1000       N  0.48761472  0.92134501  0.67095551     0.00600
N1001       N  0.42734890  0.50165183  0.66593911     0.00700
N1002       N  0.02162678  0.57311556  0.60772750    -0.47300
H1003       H  0.08791610  0.55053247  0.68228137     0.06400
N1004       N  0.00825986  0.55924601  0.66549780     0.01000
N1005       N  0.43060200  0.49770609  0.62344183     0.00700
C1006       C  0.40252279  0.98169040  0.60032688     0.42300
N1007       N  0.01695749  0.92449680  0.66957021    -0.25900
C1008       C  0.08188734  0.51904760  0.60959042    -0.06800
N1009       N  0.08842303  0.96931807  0.68113466    -0.47000
N1010       N  0.41293211  0.50775663  0.60825386    -0.47200
C1011       C  0.09682373  0.98771317  0.60075658     0.42100
N1012       N  0.00983793  0.55586960  0.62251544     0.00900
N1013       N  0.01804657  0.92046383  0.62655019    -0.25900
N1014       N  0.06368575  0.51110341  0.66726858    -0.26400
N1015       N  0.48750466  0.91790693  0.62801872     0.00600
H1016       H  0.05576321  0.89985894  0.60807660     0.06500
H1017       H  0.41393927  0.92769480  0.60799190     0.06500
N1018       N  0.47775245  0.55264544  0.62291998    -0.26500
N1019       N  0.43192974  0.97122651  0.66865366    -0.26100
N1020       N  0.06644965  0.97442974  0.62522600     0.00900
C1021       C  0.49066980  0.59141375  0.68872489     0.42300
C1022       C  0.02871880  0.90628904  0.68439138    -0.07300
N1023       N  0.43363803  0.96657726  0.62578657    -0.26100
H1024       H  0.40442394  0.93644999  0.68549987     0.06500
N1025       N  0.01900396  0.57993555  0.67904743    -0.47300
H1026       H  0.05449587  0.90213435  0.68750628     0.06500
C1027       C  0.50168314  0.88775799  0.60348696     0.42200
C1028       C  0.08385519  0.52455451  0.68055286    -0.06800
Co1029     Co  0.04241557  0.94894274  0.64741619     0.73800
N1030       N  0.47695177  0.90108887  0.68469895    -0.47000
C1031       C  0.49580515  0.58287495  0.59816380     0.42400
N1032       N  0.08589273  0.96215072  0.61140124    -0.47000
Co1033     Co  0.45970904  0.94369181  0.64852655     0.73900
C1034       C  0.41620299  0.95356986  0.61095911    -0.07300
C1035       C  0.46228758  0.57681415  0.67898871    -0.06900
N1036       N  0.06430242  0.50786643  0.62460785    -0.26400
N1037       N  0.40480351  0.51438218  0.67764583    -0.47200
H1038       H  0.44089005  0.57288984  0.60346706     0.06400
C1039       C  0.02999944  0.90276940  0.61150413    -0.07300
Cl1040     Cl  0.49990613  0.98802069  0.64726049    -0.50300
C1041       C  0.50379477  0.88963475  0.69444846     0.42200
H1042       H  0.08450233  0.54459909  0.60597200     0.06400
N1043       N  0.47572514  0.89935491  0.61368646    -0.47000
C1044       C  0.50121103  0.58988545  0.31215598     0.42100
N1045       N  0.48678422  0.55788018  0.33533628     0.00900
C1046       C  0.08594696  0.95189295  0.38888889    -0.06900
H1047       H  0.09529661  0.93297280  0.31597862     0.06400
C1048       C  0.46515206  0.90613703  0.31641570    -0.07300
Co1049     Co  0.04254130  0.52785349  0.35496057     0.74200
N1050       N  0.06683281  0.96875273  0.33171117    -0.26500
Co1051     Co  0.04001452  0.94249190  0.35263340     0.74100
C1052       C  0.49368177  0.89208423  0.30637759     0.42200
N1053       N  0.42831734  0.97690190  0.33312752     0.00600
N1054       N  0.01063298  0.92109918  0.33092393     0.00700
N1055       N  0.08546316  0.51050621  0.39053948    -0.47300
H1056       H  0.05409284  0.57972238  0.31690160     0.06400
N1057       N  0.06699998  0.50089565  0.33332848     0.01000
N1058       N  0.01304346  0.91765094  0.37385712     0.00700
C1059       C  0.49549212  0.88627869  0.39806828     0.42300
N1060       N  0.43146280  0.51080220  0.33514309    -0.25900
C1061       C  0.02924598  0.57037089  0.39235288    -0.06800
N1062       N  0.47514564  0.57889754  0.32225946    -0.47000
N1063       N  0.02491210  0.89797554  0.38766614    -0.47200
C1064       C  0.50436344  0.58264793  0.40371137     0.42100
N1065       N  0.06657808  0.49961902  0.37608111     0.00900
N1066       N  0.43356323  0.50908131  0.37783459    -0.25900
N1067       N  0.01716026  0.55498251  0.33379609    -0.26400
N1068       N  0.42967329  0.97466834  0.37605799     0.00600
H1069       H  0.41187049  0.54664851  0.39603989     0.06500
H1070       H  0.44084891  0.89942127  0.39302251     0.06500
N1071       N  0.06774061  0.96505992  0.37445078    -0.26500
N1072       N  0.47752196  0.92290792  0.33161738    -0.26100
N1073       N  0.48841225  0.55594376  0.37812762     0.00900
C1074       C  0.10353690  0.98820250  0.31021679     0.42300
C1075       C  0.41123298  0.52386265  0.32169549    -0.07300
N1076       N  0.47814058  0.91987053  0.37449576    -0.26100
H1077       H  0.43926618  0.90302915  0.31335145     0.06500
N1078       N  0.08942158  0.51252470  0.32127749    -0.47300
H1079       H  0.40700981  0.54977602  0.31955012     0.06500
C1080       C  0.40009938  0.98925402  0.40061997     0.42200
C1081       C  0.02851169  0.57444535  0.31959187    -0.06800
Co1082     Co  0.45964528  0.53396062  0.35657479     0.73800
N1083       N  0.40730974  0.96682479  0.31946034    -0.47000
C1084       C  0.10054620  0.97987528  0.39901590     0.42400
N1085       N  0.47773765  0.57372877  0.39312861    -0.47000
Co1086     Co  0.45287831  0.94802132  0.35382371     0.73900
C1087       C  0.46645565  0.90147104  0.38910804    -0.07300
C1088       C  0.08840880  0.95831337  0.31807017    -0.06900
N1089       N  0.01760936  0.55381268  0.37680762    -0.26400
N1090       N  0.02068744  0.90202395  0.31631919    -0.47200
H1091       H  0.08808664  0.92604246  0.39198677     0.06400
C1092       C  0.41591266  0.52100645  0.39281661    -0.07300
Cl1093     Cl  0.49801506  0.98728874  0.35442494    -0.50300
C1094       C  0.39588345  0.99390887  0.31023318     0.42200
H1095       H  0.05498025  0.57313873  0.39590994     0.06400
N1096       N  0.41093094  0.96305240  0.39024572    -0.47000
N1097       N  0.50531868  0.79080092  0.50071784    -0.37000
N1098       N  0.50179658  0.74070388  0.53123753    -0.57600
N1099       N  0.50505877  0.68994512  0.50154014    -0.37000
N1100       N  0.50564188  0.73961815  0.47100178    -0.57600
C1101       C  0.49755189  0.80951074  0.51651501     0.26600
C1102       C  0.49935767  0.80891560  0.48444143     0.26600
C1103       C  0.49734729  0.67189322  0.51746695     0.26600
C1104       C  0.49888755  0.67135374  0.48547150     0.26600
C1105       C  0.50602523  0.76747792  0.54266168     0.35200
C1106       C  0.50623466  0.71449003  0.54306471     0.35200
C1107       C  0.51111465  0.76573944  0.45939196     0.35200
C1108       C  0.51116005  0.71274873  0.45978835     0.35200
C1109       C  0.48709055  0.84014039  0.51024576    -0.22300
C1110       C  0.48814615  0.83973711  0.48998458    -0.22300
C1111       C  0.48648533  0.64136528  0.51147590    -0.22300
C1112       C  0.48757310  0.64095840  0.49129314    -0.22300
C1113       C  0.51293815  0.75818227  0.56184820    -0.23300
C1114       C  0.51310169  0.72462216  0.56208541    -0.23300
C1115       C  0.52009474  0.75539811  0.44071575    -0.23300
C1116       C  0.51995630  0.72184880  0.44093818    -0.23300
C1117       C  0.50148230  0.80020480  0.53642003    -0.18700
C1118       C  0.50510011  0.79870758  0.46480561    -0.18700
C1119       C  0.50559543  0.68022782  0.46583118    -0.18700
C1120       C  0.50147434  0.68161507  0.53727870    -0.18700
H1121       H  0.47960797  0.86068486  0.51933197     0.14200
H1122       H  0.48162617  0.85991293  0.48043655     0.14200
H1123       H  0.47889002  0.62130210  0.52069269     0.14200
H1124       H  0.48115551  0.62035438  0.48204252     0.14200
H1125       H  0.51700996  0.77392981  0.57444974     0.12500
H1126       H  0.51720786  0.70942658  0.57486725     0.12500
H1127       H  0.52548844  0.77046024  0.42810667     0.12500
H1128       H  0.52511481  0.70603381  0.42850726     0.12500
H1129       H  0.51726881  0.76829011  0.50114582     0.25800
H1130       H  0.51747639  0.71203636  0.50168349     0.25800
N1131       N  0.19858210  0.98971216  0.50095772    -0.37000
N1132       N  0.24944275  0.99077429  0.53086311    -0.57600
N1133       N  0.29962308  0.99497615  0.50072928    -0.37000
N1134       N  0.24867298  0.99124631  0.47085959    -0.57600
C1135       C  0.18089162  0.98171868  0.51696856     0.26600
C1136       C  0.18041255  0.98192839  0.48495366     0.26600
C1137       C  0.31830595  0.98772679  0.51662278     0.26600
C1138       C  0.31781972  0.98803258  0.48464066     0.26600
C1139       C  0.22283710  0.99475848  0.54245804     0.35200
C1140       C  0.27590930  0.99690128  0.54229454     0.35200
C1141       C  0.22169232  0.99556841  0.45951749     0.35200
C1142       C  0.27471056  0.99802203  0.45939252     0.35200
C1143       C  0.15083044  0.96916729  0.51108754    -0.22300
C1144       C  0.15057636  0.96919738  0.49083469    -0.22300
C1145       C  0.34895985  0.97664277  0.51058896    -0.22300
C1146       C  0.34863791  0.97679857  0.49036428    -0.22300
C1147       C  0.23245361  0.00336345  0.56135233    -0.23300
C1148       C  0.26610932  0.00476060  0.56123900    -0.23300
C1149       C  0.23062038  0.00521655  0.44078470    -0.23300
C1150       C  0.26424399  0.00681257  0.44071459    -0.23300
C1151       C  0.19024474  0.98796663  0.53665114    -0.18700
C1152       C  0.18937331  0.98798490  0.46527657    -0.18700
C1153       C  0.30781541  0.99316743  0.46498139    -0.18700
C1154       C  0.30882402  0.99219500  0.53639977    -0.18700
H1155       H  0.13098746  0.96119391  0.52040612     0.14200
H1156       H  0.13053478  0.96122179  0.48151202     0.14200
H1157       H  0.36945216  0.96927157  0.51979796     0.14200
H1158       H  0.36883911  0.96960038  0.48094952     0.14200
H1159       H  0.21692211  0.00747988  0.57401239     0.12500
H1160       H  0.28163713  0.01020534  0.57377449     0.12500
H1161       H  0.21461720  0.00997419  0.42835163     0.12500
H1162       H  0.27929216  0.01303563  0.42822044     0.12500
H1163       H  0.22003246  0.00336044  0.50097744     0.25800
H1164       H  0.27706024  0.00714483  0.50087775     0.25800
C1165       C  0.99874076  0.71024257  0.26530572     0.86100
C1166       C  0.03091411  0.71323170  0.25390658    -0.54200
C1167       C  0.03284629  0.73911453  0.24112730     0.09000
C1168       C  0.00143438  0.76107589  0.24212961     0.20000
C1169       C  0.49734350  0.74349193  0.27688537    -0.54900
C1170       C  0.99734001  0.76976134  0.26415878     0.09100
C1171       C  0.47110344  0.71190738  0.25130094    -0.54400
C1172       C  0.47152135  0.73818942  0.23887705     0.09700
H1173       H  0.05083007  0.69601906  0.25654042     0.14200
H1174       H  0.00149326  0.78206122  0.23221471    -0.00100
H1175       H  0.49529451  0.74709368  0.29258508     0.14500
H1176       H  0.45123863  0.69433637  0.25151306     0.14300
C1177       C  0.49334268  0.86345323  0.29295830    -0.06500
C1178       C  0.46582950  0.84290469  0.29298320    -0.17700
C1179       C  0.46594694  0.81315959  0.28281415     0.10700
C1180       C  0.49437172  0.80329878  0.27242355    -0.06500
C1181       C  0.02079648  0.82400551  0.27174832    -0.17700
C1182       C  0.02041689  0.85418263  0.28153515     0.10700
S1183       S  0.42966605  0.78822834  0.28474833    -0.32700
S1184       S  0.05576454  0.87984260  0.27861601    -0.32700
H1185       H  0.03782952  0.90944586  0.27879171     0.31500
H1186       H  0.43354399  0.77146972  0.26688008     0.28700
H1187       H  0.44440507  0.84920542  0.30161619     0.19300
H1188       H  0.04296118  0.81614219  0.26435919     0.19300
C1189       C  0.50071308  0.62063052  0.30109088    -0.06500
C1190       C  0.00253880  0.61882878  0.27953841    -0.17700
C1191       C  0.00154920  0.64732963  0.26812361     0.10700
C1192       C  0.49856955  0.67870763  0.27843141    -0.06500
C1193       C  0.49459579  0.67960891  0.29903658    -0.17700
C1194       C  0.49576374  0.65113955  0.31033880     0.10700
S1195       S  0.00555347  0.64300675  0.24171922    -0.32700
S1196       S  0.49058229  0.65542231  0.33656355    -0.32700
H1197       H  0.51310028  0.63066582  0.34178295     0.28700
H1198       H  0.00278742  0.60873432  0.24079629     0.28700
H1199       H  0.00627246  0.59519392  0.27258305     0.19300
H1200       H  0.49057131  0.70222289  0.30684113     0.19300
C1201       C  0.50403032  0.60580685  0.42069792    -0.06500
C1202       C  0.02883772  0.61549112  0.42824886    -0.17700
C1203       C  0.02991603  0.63840671  0.44352375     0.10700
C1204       C  0.50590440  0.65401492  0.45065910    -0.06500
C1205       C  0.47583035  0.64216107  0.44372555    -0.17700
C1206       C  0.47455022  0.61749621  0.42945228     0.10700
S1207       S  0.06985098  0.64888074  0.45326006    -0.32700
S1208       S  0.43459088  0.60117199  0.42403792    -0.32700
H1209       H  0.44564416  0.56857759  0.42576023     0.28700
H1210       H  0.05947099  0.66023083  0.47174350     0.28700
H1211       H  0.05185213  0.60525845  0.42312543     0.19300
H1212       H  0.45315127  0.65163127  0.44993092     0.19300
C1213       C  0.50241962  0.82305425  0.44861799    -0.06500
C1214       C  0.47507663  0.82123552  0.43605769    -0.17700
C1215       C  0.47263811  0.84056804  0.41919642     0.10700
C1216       C  0.49723518  0.86389674  0.41519565    -0.06500
C1217       C  0.02578582  0.86690798  0.42826604    -0.17700
C1218       C  0.02797981  0.84594405  0.44449154     0.10700
S1219       S  0.43917587  0.83175340  0.40262287    -0.32700
S1220       S  0.06269367  0.85062142  0.46081932    -0.32700
H1221       H  0.06527532  0.81753109  0.46621661     0.28700
H1222       H  0.45821300  0.83461224  0.38551058     0.28700
H1223       H  0.45622357  0.80330744  0.43892272     0.19300
H1224       H  0.04413906  0.88571253  0.42644263     0.19300
C1225       C  0.12248533  0.98023734  0.41642424    -0.06500
C1226       C  0.11738303  0.51189005  0.42998602    -0.17700
C1227       C  0.13900048  0.51519312  0.44589866     0.10700
C1228       C  0.16423225  0.98496681  0.44954186    -0.06500
C1229       C  0.16608978  0.95773879  0.43697381    -0.17700
C1230       C  0.14616062  0.95544392  0.42025186     0.10700
S1231       S  0.13515285  0.55144050  0.46100609    -0.32700
S1232       S  0.15472959  0.92199500  0.40365412    -0.32700
H1233       H  0.15259101  0.94132536  0.38662649     0.28700
H1234       H  0.16848715  0.55367583  0.46627103     0.28700
H1235       H  0.09883922  0.53066780  0.42756441     0.19300
H1236       H  0.18454183  0.93897284  0.43967324     0.19300
C1237       C  0.37709132  0.98861777  0.41738927    -0.06500
C1238       C  0.37937826  0.51700048  0.43237977    -0.17700
C1239       C  0.35661093  0.51917622  0.44763968     0.10700
C1240       C  0.33287237  0.99166601  0.44919931    -0.06500
C1241       C  0.33163942  0.96568816  0.43565940    -0.17700
C1242       C  0.35291854  0.96424797  0.41959965     0.10700
S1243       S  0.36047911  0.55289666  0.46472135    -0.32700
S1244       S  0.34622955  0.93207850  0.40187314    -0.32700
H1245       H  0.34775409  0.95307446  0.38556495     0.28700
H1246       H  0.32682371  0.55610542  0.46893358     0.28700
H1247       H  0.39862138  0.53503079  0.43163694     0.19300
H1248       H  0.31302861  0.94706501  0.43722612     0.19300
C1249       C  0.12015287  0.98613991  0.58390975    -0.06500
C1250       C  0.12890848  0.51894816  0.57532318    -0.17700
C1251       C  0.15047548  0.52040196  0.55952196     0.10700
C1252       C  0.16462364  0.98750134  0.55206991    -0.06500
C1253       C  0.15762060  0.95793454  0.56146365    -0.17700
C1254       C  0.13559725  0.95678317  0.57731815     0.10700
S1255       S  0.16093507  0.56035848  0.55035225    -0.32700
S1256       S  0.12865587  0.91782839  0.58904348    -0.32700
H1257       H  0.14997833  0.89889525  0.57729954     0.28700
H1258       H  0.16632643  0.55066841  0.53078204     0.28700
H1259       H  0.11985451  0.54186133  0.58122911     0.19300
H1260       H  0.17000848  0.93586092  0.55650154     0.19300
C1261       C  0.37914795  0.98269276  0.58354117    -0.06500
C1262       C  0.38132691  0.50847906  0.56918742    -0.17700
C1263       C  0.35848239  0.51284754  0.55401421     0.10700
C1264       C  0.33419663  0.98930341  0.55202594    -0.06500
C1265       C  0.33433354  0.96116208  0.56369328    -0.17700
C1266       C  0.35582901  0.95789458  0.57964268     0.10700
S1267       S  0.36220904  0.54890108  0.53897721    -0.32700
S1268       S  0.34967960  0.92299792  0.59519871    -0.32700
H1269       H  0.35051775  0.94147971  0.61269982     0.28700
H1270       H  0.32856257  0.55263590  0.53473714     0.28700
H1271       H  0.40032750  0.52662884  0.57126673     0.19300
H1272       H  0.31645229  0.94218447  0.56082807     0.19300
C1273       C  0.49720889  0.60693255  0.58189571    -0.06500
C1274       C  0.47088989  0.62909363  0.57941169    -0.17700
C1275       C  0.47168144  0.65346131  0.56493729     0.10700
C1276       C  0.49947916  0.65606998  0.55278874    -0.06500
C1277       C  0.52548564  0.63363130  0.55493831    -0.17700
C1278       C  0.52444939  0.60887600  0.56909392     0.10700
S1279       S  0.43707974  0.68099089  0.56183038    -0.32700
S1280       S  0.55792552  0.57971407  0.56936148    -0.32700
H1281       H  0.53812472  0.55246200  0.57328335     0.28700
H1282       H  0.41697112  0.66702820  0.57624818     0.28700
H1283       H  0.44987380  0.62769885  0.58904237     0.19300
H1284       H  0.54651124  0.63513114  0.54527150     0.19300
C1285       C  0.49975921  0.86717528  0.58541315    -0.06500
C1286       C  0.02962656  0.86341741  0.57303477    -0.17700
C1287       C  0.03119129  0.84266243  0.55665492     0.10700
C1288       C  0.50056382  0.82587721  0.55193136    -0.06500
C1289       C  0.47217009  0.82888979  0.56339394    -0.17700
C1290       C  0.47136919  0.84911326  0.58012863     0.10700
S1291       S  0.07075743  0.83670653  0.54524812    -0.32700
S1292       S  0.43442196  0.84995052  0.59483147    -0.32700
H1293       H  0.41703650  0.82585174  0.58435385     0.28700
H1294       H  0.05914974  0.82929084  0.52630918     0.28700
H1295       H  0.05197369  0.87531909  0.57774472     0.19300
H1296       H  0.45097980  0.81432785  0.55951073     0.19300
C1297       C  0.12006049  0.74542849  0.20356013    -0.06500
C1298       C  0.10086720  0.77354433  0.20698686    -0.17700
C1299       C  0.07318529  0.77329313  0.21939589     0.10700
C1300       C  0.06249668  0.74319105  0.22774210    -0.06500
C1301       C  0.08189362  0.71504784  0.22372896    -0.17700
C1302       C  0.11125895  0.71630822  0.21323878     0.10700
S1303       S  0.05392742  0.81233459  0.22450713    -0.32700
S1304       S  0.13731397  0.68044222  0.21464429    -0.32700
H1305       H  0.16667144  0.69827898  0.21613939     0.28700
H1306       H  0.07626734  0.83252489  0.21468252     0.28700
H1307       H  0.10785345  0.79612651  0.19996464     0.19300
H1308       H  0.07493992  0.69129980  0.22912283     0.19300
C1309       C  0.38326913  0.75065077  0.20340958    -0.06500
C1310       C  0.39956404  0.77845020  0.21054907    -0.17700
C1311       C  0.42891658  0.77600631  0.22151722     0.10700
C1312       C  0.44334212  0.74464276  0.22494998    -0.06500
C1313       C  0.42784517  0.71717159  0.21671006    -0.17700
C1314       C  0.39769456  0.71949778  0.20697821     0.10700
S1315       S  0.44575866  0.81340247  0.23146188    -0.32700
S1316       S  0.37856190  0.68113939  0.20076408    -0.32700
H1317       H  0.34843056  0.68988467  0.20951639     0.28700
H1318       H  0.42042908  0.83490295  0.22559976     0.28700
H1319       H  0.38893416  0.80233329  0.20784946     0.19300
H1320       H  0.43853610  0.69302998  0.21871751     0.19300
C1321       C  0.25796519  0.63697854  0.08225636    -0.06500
C1322       C  0.23227073  0.63914977  0.06849024    -0.17700
C1323       C  0.22948921  0.61670034  0.05304335     0.10700
C1324       C  0.25332601  0.59163685  0.05104580    -0.06500
C1325       C  0.27949095  0.58982817  0.06447519    -0.17700
C1326       C  0.28177621  0.61172741  0.08024185     0.10700
S1327       S  0.19491650  0.62138011  0.03655319    -0.32700
S1328       S  0.31404669  0.60414728  0.09788825    -0.32700
H1329       H  0.29389819  0.60962824  0.11435104     0.28700
H1330       H  0.19188925  0.58813929  0.03154755     0.28700
H1331       H  0.21393211  0.65835914  0.06990822     0.19300
H1332       H  0.29762014  0.57037135  0.06303196     0.19300
C1333       C  0.25018752  0.87604941  0.08385862    -0.06500
C1334       C  0.27489550  0.89979038  0.08293963    -0.17700
C1335       C  0.27695022  0.92154173  0.06709347     0.10700
C1336       C  0.25317905  0.92050039  0.05182734    -0.06500
C1337       C  0.22938744  0.89581061  0.05225144    -0.17700
C1338       C  0.22810549  0.87322080  0.06774796     0.10700
S1339       S  0.31025764  0.95041369  0.06741112    -0.32700
S1340       S  0.19874675  0.84060370  0.06546100    -0.32700
H1341       H  0.21921014  0.81668021  0.07408644     0.28700
H1342       H  0.31270010  0.95339116  0.04689028     0.28700
H1343       H  0.29254145  0.90182389  0.09485130     0.19300
H1344       H  0.21155349  0.89419925  0.04041487     0.19300
C1345       C  0.25466136  0.64121248  0.91935362    -0.06500
C1346       C  0.28108819  0.61895188  0.92104016    -0.17700
C1347       C  0.28164112  0.59471107  0.93558684     0.10700
C1348       C  0.25488349  0.59202670  0.94863689    -0.06500
C1349       C  0.22866833  0.61438058  0.94711215    -0.17700
C1350       C  0.22846411  0.63909843  0.93290342     0.10700
S1351       S  0.31704790  0.56788184  0.93663887    -0.32700
S1352       S  0.19465688  0.66787916  0.93345305    -0.32700
H1353       H  0.21405035  0.69541923  0.92952079     0.28700
H1354       H  0.31580711  0.56194198  0.95695014     0.28700
H1355       H  0.30141860  0.62018777  0.91085826     0.19300
H1356       H  0.20832309  0.61276030  0.95727790     0.19300
C1357       C  0.24928541  0.92464465  0.94840938    -0.06500
C1358       C  0.27507941  0.92516794  0.93483105    -0.17700
C1359       C  0.27468879  0.90528268  0.91808300     0.10700
C1360       C  0.24851303  0.88317200  0.91512709    -0.06500
C1361       C  0.22331754  0.88185003  0.92915564    -0.17700
C1362       C  0.22316220  0.90259983  0.94556468     0.10700
S1363       S  0.30714639  0.91116174  0.90055030    -0.32700
S1364       S  0.18869048  0.90010579  0.96205836    -0.32700
H1365       H  0.18808545  0.93334300  0.96746838     0.28700
H1366       H  0.28580500  0.91218970  0.88422065     0.28700
H1367       H  0.29494476  0.94238569  0.93687352     0.19300
H1368       H  0.20327552  0.86483190  0.92723964     0.19300
C1369       C  0.49437318  0.67693696  0.72601051    -0.06500
C1370       C  0.01942859  0.65404996  0.72681104    -0.17700
C1371       C  0.01862488  0.62553929  0.71526921     0.10700
C1372       C  0.49107896  0.61970398  0.70221963    -0.06500
C1373       C  0.46849980  0.64535749  0.69953911    -0.17700
C1374       C  0.46992087  0.67395022  0.71106674     0.10700
S1375       S  0.05002283  0.59438562  0.71874652    -0.32700
S1376       S  0.44026962  0.70625074  0.70624577    -0.32700
H1377       H  0.42140203  0.68948422  0.69212160     0.28700
H1378       H  0.06497907  0.60806063  0.73552067     0.28700
H1379       H  0.03964823  0.65618066  0.73683076     0.19300
H1380       H  0.45036288  0.64338682  0.68791771     0.19300
C1381       C  0.50436120  0.85985041  0.70700252    -0.06500
C1382       C  0.02755180  0.84126063  0.70626983    -0.17700
C1383       C  0.02837905  0.81196749  0.71687350     0.10700
C1384       C  0.50575932  0.80043088  0.72847399    -0.06500
C1385       C  0.48053733  0.82356960  0.73139687    -0.17700
C1386       C  0.47944518  0.85297298  0.72078938     0.10700
S1387       S  0.06521245  0.78722450  0.71507996    -0.32700
S1388       S  0.44557140  0.88055049  0.72553821    -0.32700
H1389       H  0.46387513  0.90933304  0.72332628     0.28700
H1390       H  0.06236831  0.77193375  0.73341082     0.28700
H1391       H  0.04860440  0.84717360  0.69734250     0.19300
H1392       H  0.46103658  0.81838856  0.74167282     0.19300
C1393       C  0.10930526  0.75198675  0.80199723    -0.06500
C1394       C  0.08856013  0.72496889  0.80428290    -0.17700
C1395       C  0.05920993  0.72206307  0.79361274     0.10700
C1396       C  0.05007749  0.74643152  0.77985108    -0.06500
C1397       C  0.06971001  0.77437835  0.77829899    -0.17700
C1398       C  0.09929671  0.77722982  0.78896197     0.10700
S1399       S  0.03453288  0.68642551  0.79828844    -0.32700
S1400       S  0.12422827  0.81248984  0.78408724    -0.32700
H1401       H  0.15409010  0.79489196  0.78363356     0.28700
H1402       H  0.00435380  0.70067519  0.79277189     0.28700
H1403       H  0.09505223  0.70583511  0.81458627     0.19300
H1404       H  0.06311571  0.79314025  0.76775465     0.19300
C1405       C  0.43835742  0.75241403  0.77434513    -0.06500
C1406       C  0.44121676  0.74802061  0.79472631    -0.17700
C1407       C  0.41385927  0.75140134  0.80708943     0.10700
C1408       C  0.38284363  0.75958012  0.79895740    -0.06500
C1409       C  0.38036188  0.76567814  0.77876450    -0.17700
C1410       C  0.40754108  0.76191811  0.76633656     0.10700
S1411       S  0.42002844  0.74439107  0.83300318    -0.32700
S1412       S  0.40039397  0.76868176  0.74043505    -0.32700
H1413       H  0.43305700  0.76877272  0.73413772     0.28700
H1414       H  0.39554392  0.76636792  0.83945509     0.28700
H1415       H  0.46468986  0.74079625  0.80098715     0.19300
H1416       H  0.35669722  0.77228145  0.77249195     0.19300
C1417       C  0.36316243  0.99539591  0.70110010    -0.06500
C1418       C  0.34753652  0.96720766  0.70821991    -0.17700
C1419       C  0.31911171  0.96914749  0.72002185     0.10700
C1420       C  0.30507777  0.00014356  0.72448816    -0.06500
C1421       C  0.31796602  0.52609948  0.71543768    -0.17700
C1422       C  0.34619056  0.52415263  0.70397510     0.10700
S1423       S  0.30244199  0.93183113  0.72970726    -0.32700
S1424       S  0.36199527  0.56268731  0.69556409    -0.32700
H1425       H  0.39264732  0.55781158  0.70481943     0.28700
H1426       H  0.32663145  0.91024168  0.72242844     0.28700
H1427       H  0.35793797  0.94343536  0.70485461     0.19300
H1428       H  0.30706121  0.55006227  0.71790443     0.19300
C1429       C  0.19083192  0.00525153  0.72248146    -0.06500
C1430       C  0.17205453  0.97673516  0.72398814    -0.17700
C1431       C  0.14227911  0.97342118  0.71372603     0.10700
C1432       C  0.13159212  0.99856435  0.70089610    -0.06500
C1433       C  0.15116923  0.52747695  0.69990035    -0.17700
C1434       C  0.18033405  0.53126463  0.71057699     0.10700
S1435       S  0.11815138  0.93764248  0.71874772    -0.32700
S1436       S  0.20330700  0.56820709  0.70649751    -0.32700
H1437       H  0.23438842  0.55398116  0.70996760     0.28700
H1438       H  0.08787597  0.95452297  0.71916758     0.28700
H1439       H  0.17962679  0.95769628  0.73408322     0.19300
H1440       H  0.14366226  0.54700282  0.69012697     0.19300
C1441       C  0.25014984  0.62834977  0.79970397    -0.06500
C1442       C  0.22541199  0.60511003  0.80232568    -0.17700
C1443       C  0.22409015  0.57646451  0.79084665     0.10700
C1444       C  0.24899023  0.56994914  0.77669877    -0.06500
C1445       C  0.27246737  0.59462829  0.77344100    -0.17700
C1446       C  0.27313652  0.62346775  0.78453200     0.10700
S1447       S  0.18947922  0.54947744  0.79404812    -0.32700
S1448       S  0.30260645  0.65396232  0.77746342    -0.32700
H1449       H  0.28167420  0.68089092  0.78106806     0.28700
H1450       H  0.17692527  0.56409116  0.81123589     0.28700
H1451       H  0.20696737  0.60944155  0.81347219     0.19300
H1452       H  0.28968982  0.59302275  0.76151983     0.19300
C1453       C  0.24097312  0.94634068  0.77234120    -0.06500
C1454       C  0.27056429  0.92961628  0.77574861    -0.17700
C1455       C  0.27145889  0.89962337  0.78556939     0.10700
C1456       C  0.24211705  0.88650744  0.79336023    -0.06500
C1457       C  0.21230704  0.90307865  0.78949842    -0.17700
C1458       C  0.21135485  0.93278904  0.77925540     0.10700
S1459       S  0.31099995  0.87964514  0.78740862    -0.32700
S1460       S  0.17147940  0.95211302  0.77641840    -0.32700
H1461       H  0.18122477  0.98213088  0.76864685     0.28700
H1462       H  0.29872074  0.84837307  0.78291418     0.28700
H1463       H  0.29341164  0.94033671  0.77096794     0.19300
H1464       H  0.18944568  0.89359513  0.79505434     0.19300
C1465       C  0.13144928  0.76190245  0.08147381    -0.06500
C1466       C  0.10871884  0.78799612  0.08183412    -0.17700
C1467       C  0.08486040  0.79164381  0.06713301     0.10700
C1468       C  0.08309655  0.76831583  0.05178966    -0.06500
C1469       C  0.10607338  0.74262386  0.05115311    -0.17700
C1470       C  0.13050108  0.73945259  0.06554109     0.10700
S1471       S  0.05713027  0.82623021  0.06900995    -0.32700
S1472       S  0.16028451  0.70715335  0.06194984    -0.32700
H1473       H  0.18719571  0.72581959  0.06837670     0.28700
H1474       H  0.05071647  0.82921731  0.04877974     0.28700
H1475       H  0.10926133  0.80560671  0.09379053     0.19300
H1476       H  0.10503205  0.72495799  0.03922698     0.19300
C1477       C  0.37161202  0.76750422  0.08517438    -0.06500
C1478       C  0.39071582  0.79559591  0.08238375    -0.17700
C1479       C  0.41190439  0.79830073  0.06637721     0.10700
C1480       C  0.41437611  0.77226574  0.05275648    -0.06500
C1481       C  0.39510424  0.74438390  0.05526364    -0.17700
C1482       C  0.37375757  0.74159592  0.07129396     0.10700
S1483       S  0.43592014  0.83510088  0.06454675    -0.32700
S1484       S  0.34913139  0.70515845  0.07335075    -0.32700
H1485       H  0.36169620  0.68850038  0.05684176     0.28700
H1486       H  0.44036825  0.83399344  0.04408582     0.28700
H1487       H  0.38958725  0.81554749  0.09290256     0.19300
H1488       H  0.39744781  0.72448024  0.04478264     0.19300
C1489       C  0.12605226  0.76533102  0.91796746    -0.06500
C1490       C  0.11924869  0.73700675  0.92888588    -0.17700
C1491       C  0.09743646  0.73762383  0.94472844     0.10700
C1492       C  0.08139675  0.76712482  0.94987893    -0.06500
C1493       C  0.08815111  0.79555533  0.93928147    -0.17700
C1494       C  0.11007135  0.79507790  0.92344575     0.10700
S1495       S  0.09024579  0.69963434  0.95734026    -0.32700
S1496       S  0.11559950  0.83323764  0.91080775    -0.32700
H1497       H  0.10618782  0.82012848  0.89247975     0.28700
H1498       H  0.08532219  0.71344058  0.97604212     0.28700
H1499       H  0.13108437  0.71398910  0.92524560     0.19300
H1500       H  0.07562744  0.81819918  0.94313853     0.19300
C1501       C  0.41328826  0.77125187  0.94966652    -0.06500
C1502       C  0.41612108  0.79554310  0.93526572    -0.17700
C1503       C  0.39677192  0.79502540  0.91823465     0.10700
C1504       C  0.37228685  0.77089681  0.91597829    -0.06500
C1505       C  0.36891912  0.74704983  0.93062683    -0.17700
C1506       C  0.38943893  0.74661714  0.94722633     0.10700
S1507       S  0.40710094  0.82368516  0.89921753    -0.32700
S1508       S  0.38446865  0.71351851  0.96439378    -0.32700
H1509       H  0.41762052  0.71106895  0.97010106     0.28700
H1510       H  0.40265741  0.80126603  0.88367723     0.28700
H1511       H  0.43507801  0.81388593  0.93676248     0.19300
H1512       H  0.35043603  0.72827380  0.92900030     0.19300
C1513       C  0.36540391  0.99525902  0.29819832    -0.06500
C1514       C  0.34334357  0.52444794  0.30269747    -0.17700
C1515       C  0.31448587  0.52752317  0.29167724     0.10700
C1516       C  0.30683413  0.00148609  0.27578294    -0.06500
C1517       C  0.32782094  0.97439617  0.27313331    -0.17700
C1518       C  0.35701640  0.97104711  0.28411845     0.10700
S1519       S  0.28851222  0.56231464  0.29683349    -0.32700
S1520       S  0.38326353  0.93644324  0.27864703    -0.32700
H1521       H  0.41293122  0.95350463  0.28087460     0.28700
H1522       H  0.25926702  0.54556787  0.29287931     0.28700
H1523       H  0.34897564  0.54328326  0.31341925     0.19300
H1524       H  0.32238755  0.95665126  0.26176527     0.19300
C1525       C  0.19122202  0.00512362  0.27555962    -0.06500
C1526       C  0.17593245  0.97449275  0.27472101    -0.17700
C1527       C  0.14705814  0.96808920  0.28530993     0.10700
C1528       C  0.13386895  0.99237040  0.29805541    -0.06500
C1529       C  0.14909847  0.52189354  0.29983726    -0.17700
C1530       C  0.17681372  0.52882660  0.28847497     0.10700
S1531       S  0.12682225  0.92961793  0.28112274    -0.32700
S1532       S  0.19356199  0.56964864  0.28953113    -0.32700
H1533       H  0.16817854  0.58446112  0.30045685     0.28700
H1534       H  0.14397354  0.92059949  0.26399279     0.28700
H1535       H  0.18599895  0.95582777  0.26507782     0.19300
H1536       H  0.13838595  0.54139014  0.30857175     0.19300
C1537       C  0.24930137  0.56746691  0.22362791    -0.06500
C1538       C  0.24528937  0.56504552  0.20298963    -0.17700
C1539       C  0.24646092  0.59251075  0.19081183     0.10700
C1540       C  0.25135332  0.62364970  0.19914828    -0.06500
C1541       C  0.25422208  0.62681208  0.21950142    -0.17700
C1542       C  0.25257697  0.59945494  0.23185136     0.10700
S1543       S  0.24121158  0.58612352  0.16470274    -0.32700
S1544       S  0.25386701  0.60647720  0.25808401    -0.32700
H1545       H  0.25537740  0.64084430  0.25772020     0.28700
H1546       H  0.26214557  0.61131359  0.15869372     0.28700
H1547       H  0.24069917  0.54205666  0.19579693     0.19300
H1548       H  0.25718716  0.65106090  0.22572434     0.19300
C1549       C  0.24239295  0.94401105  0.22937638    -0.06500
C1550       C  0.26721130  0.92052008  0.23237979    -0.17700
C1551       C  0.26716207  0.89057063  0.22213578     0.10700
C1552       C  0.24186384  0.88388032  0.20836575    -0.06500
C1553       C  0.21602791  0.90664900  0.20632094    -0.17700
C1554       C  0.21590394  0.93633537  0.21667357     0.10700
S1555       S  0.30019485  0.86210706  0.22719197    -0.32700
S1556       S  0.18155616  0.96374157  0.21250736    -0.32700
H1557       H  0.18273563  0.97919939  0.23095769     0.28700
H1558       H  0.28121736  0.83380612  0.22448605     0.28700
H1559       H  0.28740046  0.92594686  0.24221144     0.19300
H1560       H  0.19620853  0.90194249  0.19604600     0.19300
C1561       C  0.75073369  0.03531789  0.23658757     0.86100
C1562       C  0.78078512  0.03242365  0.25023268    -0.54200
C1563       C  0.77853654  0.50682767  0.26213398     0.09000
C1564       C  0.74752096  0.48560155  0.26002472     0.20000
C1565       C  0.74939505  0.00144151  0.22639115    -0.54900
C1566       C  0.74603593  0.47612535  0.23811769     0.09100
C1567       C  0.72076991  0.03526385  0.25036366    -0.54400
C1568       C  0.71839738  0.50975816  0.26274397     0.09700
H1569       H  0.80114447  0.04943732  0.24989728     0.14200
H1570       H  0.74708256  0.46434004  0.27013147    -0.00100
H1571       H  0.74757086  0.49811882  0.21003393     0.14500
H1572       H  0.70126113  0.05347423  0.24938358     0.14300
N1573       N  0.94824865  0.26915163  0.00165942    -0.37000
N1574       N  0.49924556  0.26518957  0.97078550    -0.57600
N1575       N  0.54879153  0.26484815  0.00162999    -0.37000
N1576       N  0.49779713  0.27080137  0.03113031    -0.57600
C1577       C  0.92966674  0.27490760  0.98550424     0.26600
C1578       C  0.92998994  0.27748078  0.01747777     0.26600
C1579       C  0.56787002  0.26948912  0.98568089     0.26600
C1580       C  0.56708037  0.27232873  0.01763838     0.26600
C1581       C  0.97206872  0.26184686  0.96049523     0.35200
C1582       C  0.52601130  0.25784757  0.95987811     0.35200
C1583       C  0.97270037  0.26798531  0.04306574     0.35200
C1584       C  0.52395494  0.26566736  0.04307337     0.35200
C1585       C  0.89904467  0.28670566  0.99109634    -0.22300
C1586       C  0.89923425  0.28830446  0.01133242    -0.22300
C1587       C  0.59879790  0.27964641  0.99162080    -0.22300
C1588       C  0.59828112  0.28150332  0.01180588    -0.22300
C1589       C  0.98197243  0.25056839  0.94217296    -0.23300
C1590       C  0.51661268  0.24802465  0.94117468    -0.23300
C1591       C  0.98280188  0.25846185  0.06167999    -0.23300
C1592       C  0.51355710  0.25883851  0.06197165    -0.23300
C1593       C  0.93917952  0.26782671  0.96599270    -0.18700
C1594       C  0.93974740  0.27339830  0.03727793    -0.18700
C1595       C  0.55710307  0.26895438  0.03740218    -0.18700
C1596       C  0.55882723  0.26249631  0.96604234    -0.18700
H1597       H  0.87858680  0.29310399  0.98160389     0.14200
H1598       H  0.87894695  0.29620905  0.02048385     0.14200
H1599       H  0.61971378  0.28476539  0.98239454     0.14200
H1600       H  0.61869436  0.28844435  0.02114412     0.14200
H1601       H  0.96654023  0.24284489  0.93003801     0.12500
H1602       H  0.53239178  0.24115857  0.92904473     0.12500
H1603       H  0.96745631  0.25254675  0.07409929     0.12500
H1604       H  0.52864829  0.25406272  0.07479711     0.12500
H1605       H  0.97062336  0.25673654  0.00195956     0.25800
H1606       H  0.52606910  0.25340007  0.00171167     0.25800
C1607       C  0.75094824  0.03668945  0.76526532     0.86100
C1608       C  0.74838911  0.00510413  0.77725871    -0.54200
C1609       C  0.74618821  0.47735084  0.76478240     0.09000
C1610       C  0.74737221  0.48372323  0.74237808     0.20000
C1611       C  0.78136766  0.03010260  0.75236085    -0.54900
C1612       C  0.77903867  0.50377858  0.73934304     0.09100
C1613       C  0.72177804  0.03593069  0.75089848    -0.54400
C1614       C  0.71918415  0.50840516  0.73851215     0.09700
H1615       H  0.74836637  0.50424013  0.79201526     0.14200
H1616       H  0.74566991  0.46135627  0.73313818    -0.00100
H1617       H  0.80326942  0.04488245  0.75234875     0.14500
H1618       H  0.70366330  0.05555728  0.74998122     0.14300
C1619       C  0.49827160  0.21027516  0.73826497     0.86100
C1620       C  0.52647740  0.21247694  0.75348088    -0.54200
C1621       C  0.52583419  0.23981341  0.76504672     0.09000
C1622       C  0.49734179  0.26355800  0.76003513     0.20000
C1623       C  0.96716773  0.21545021  0.74922721    -0.54900
C1624       C  0.96606328  0.24344100  0.76027400     0.09100
C1625       C  0.50173984  0.24213128  0.72659417    -0.54400
C1626       C  0.50113631  0.26996778  0.73781496     0.09700
H1627       H  0.54674389  0.19540107  0.75486088     0.14200
H1628       H  0.49686587  0.28613210  0.76919568    -0.00100
H1629       H  0.94721182  0.19796108  0.74901802     0.14500
H1630       H  0.50435787  0.24267425  0.71071610     0.14300
N1631       N  0.74473917  0.45409603  0.00152963    -0.37000
N1632       N  0.74798007  0.00594418  0.03113540    -0.57600
N1633       N  0.75081231  0.05671197  0.00100077    -0.37000
N1634       N  0.75103201  0.00706271  0.97088563    -0.57600
C1635       C  0.75152457  0.43526183  0.01741742     0.26600
C1636       C  0.75032859  0.43560480  0.98535715     0.26600
C1637       C  0.75841292  0.07413044  0.01728138     0.26600
C1638       C  0.75964248  0.07483055  0.98531840     0.26600
C1639       C  0.74327343  0.47810157  0.04289823     0.35200
C1640       C  0.74279474  0.03286408  0.04234245     0.35200
C1641       C  0.74160933  0.47874865  0.95984444     0.35200
C1642       C  0.74752036  0.03385681  0.95939838     0.35200
C1643       C  0.76098852  0.40422188  0.01123970    -0.22300
C1644       C  0.76015826  0.40440617  0.99098792    -0.22300
C1645       C  0.77214883  0.10374069  0.01190272    -0.22300
C1646       C  0.77279341  0.10422466  0.99168984    -0.22300
C1647       C  0.73399953  0.48854541  0.06147656    -0.23300
C1648       C  0.73181350  0.02390476  0.06080480    -0.23300
C1649       C  0.73308706  0.48880916  0.94102168    -0.23300
C1650       C  0.73858353  0.02479839  0.94050698    -0.23300
C1651       C  0.74799372  0.44507351  0.03729758    -0.18700
C1652       C  0.74519067  0.44571399  0.96570994    -0.18700
C1653       C  0.75432532  0.06621458  0.96544352    -0.18700
C1654       C  0.75071957  0.06513052  0.03673878    -0.18700
H1655       H  0.76766180  0.38355439  0.02036352     0.14200
H1656       H  0.76603070  0.38386298  0.98149171     0.14200
H1657       H  0.78029496  0.12324628  0.02153343     0.14200
H1658       H  0.78166800  0.12405126  0.98270776     0.14200
H1659       H  0.72779223  0.47354144  0.07396994     0.12500
H1660       H  0.72607170  0.03985595  0.07308909     0.12500
H1661       H  0.72621602  0.47354886  0.92864433     0.12500
H1662       H  0.73446289  0.04062234  0.92800506     0.12500
H1663       H  0.73372019  0.47710532  0.00159290     0.25800
H1664       H  0.73673707  0.03562564  0.00064699     0.25800
C1665       C  0.85009817  0.26735914  0.89986190     0.42100
N1666       N  0.81968083  0.24911274  0.87660357     0.00900
C1667       C  0.71597186  0.34065711  0.81690882    -0.06900
H1668       H  0.69183975  0.34676577  0.89353474     0.06400
C1669       C  0.66714943  0.22963573  0.89344618    -0.07300
Co1670     Co  0.78914102  0.30346182  0.85350206     0.74200
N1671       N  0.72910780  0.32619488  0.87465861    -0.26500
Co1672     Co  0.70395159  0.29790514  0.85426077     0.74100
C1673       C  0.65326176  0.25934347  0.90240216     0.42200
N1674       N  0.73953637  0.19219267  0.87890657     0.00600
N1675       N  0.68155703  0.27220877  0.87696987     0.00700
N1676       N  0.77119236  0.34431307  0.81764538    -0.47300
H1677       H  0.83726795  0.32090333  0.89234157     0.06400
N1678       N  0.76141120  0.32809059  0.87458072     0.01000
N1679       N  0.67901298  0.26837039  0.83412961     0.00700
C1680       C  0.64293633  0.25086022  0.81339893     0.42300
N1681       N  0.77185530  0.19444788  0.87861373    -0.25900
C1682       C  0.83674288  0.28830708  0.81865628    -0.06800
N1683       N  0.83926872  0.23967955  0.89114488    -0.47000
N1684       N  0.65595511  0.27810481  0.82155399    -0.47200
C1685       C  0.85334626  0.25905372  0.81112071     0.42100
N1686       N  0.76038194  0.32495018  0.83167322     0.00900
N1687       N  0.77068384  0.19092623  0.83573629    -0.25900
N1688       N  0.81690526  0.28122181  0.87540442    -0.26400
N1689       N  0.73832031  0.18885947  0.83597343     0.00600
H1690       H  0.80801411  0.16603261  0.81890524     0.06500
H1691       H  0.65481959  0.19713528  0.82124307     0.06500
N1692       N  0.72808023  0.32260872  0.83173449    -0.26500
N1693       N  0.68419263  0.24008660  0.87792788    -0.26100
N1694       N  0.81973456  0.24518521  0.83383443     0.00900
C1695       C  0.74664039  0.35686045  0.89950958     0.42300
C1696       C  0.78423109  0.17785984  0.89398243    -0.07300
N1697       N  0.68169472  0.23620579  0.83513209    -0.26100
H1698       H  0.66403346  0.20427108  0.89739834     0.06500
N1699       N  0.77291865  0.34604541  0.88926461    -0.47300
H1700       H  0.81006968  0.17480673  0.89734888     0.06500
C1701       C  0.75312483  0.15657525  0.81266887     0.42200
C1702       C  0.83502587  0.29492431  0.88961937    -0.06800
Co1703     Co  0.79598337  0.21932060  0.85618752     0.73800
N1704       N  0.72886180  0.17458445  0.89386644    -0.47000
C1705       C  0.74478338  0.35514081  0.80742088     0.42400
N1706       N  0.84190247  0.23332147  0.82138196    -0.47000
Co1707     Co  0.71055984  0.21372780  0.85694974     0.73900
C1708       C  0.65992257  0.22298837  0.82258104    -0.07300
C1709       C  0.71749276  0.34365871  0.88985099    -0.06900
N1710       N  0.81653665  0.27732703  0.83267486    -0.26400
N1711       N  0.66337117  0.28466073  0.89131037    -0.47200
H1712       H  0.69011314  0.34477040  0.81407013     0.06400
C1713       C  0.78231262  0.17117499  0.82158879    -0.07300
Cl1714     Cl  0.74991441  0.25856828  0.85511102    -0.50300
C1715       C  0.75561194  0.16500332  0.90426791     0.42200
H1716       H  0.84155011  0.31374059  0.81551570     0.06400
N1717       N  0.72686873  0.16832509  0.82257275    -0.47000
C1718       C  0.85659767  0.25473142  0.18997061     0.42100
N1719       N  0.82013199  0.24379639  0.16794158     0.00900
C1720       C  0.71666943  0.34415207  0.11426030    -0.06900
H1721       H  0.68976234  0.34146272  0.18961807     0.06400
C1722       C  0.66309005  0.21766729  0.17815125    -0.07300
Co1723     Co  0.78968232  0.30339355  0.14995697     0.74200
N1724       N  0.72845663  0.32030307  0.17209346    -0.26500
Co1725     Co  0.70449131  0.29639377  0.14898370     0.74100
C1726       C  0.64658733  0.24391443  0.18917625     0.42200
N1727       N  0.74018861  0.18592600  0.16434951     0.00600
N1728       N  0.68081084  0.26465068  0.16849240     0.00700
N1729       N  0.77202918  0.34709689  0.11456997    -0.47300
H1730       H  0.84565843  0.31027214  0.18730322     0.06400
N1731       N  0.76073606  0.32337952  0.17246877     0.01000
N1732       N  0.68227065  0.27148443  0.12548006     0.00700
C1733       C  0.65490368  0.25905217  0.09936332     0.42300
N1734       N  0.77247587  0.18884096  0.16501341    -0.25900
C1735       C  0.83402962  0.29654805  0.11287822    -0.06800
N1736       N  0.84283169  0.23054375  0.17937257    -0.47000
N1737       N  0.66402395  0.28419171  0.11118486    -0.47200
C1738       C  0.84706756  0.26929518  0.10123788     0.42100
N1739       N  0.76114826  0.32908492  0.12932375     0.00900
N1740       N  0.77336139  0.19520336  0.12236188    -0.25900
N1741       N  0.81783254  0.27585272  0.17002493    -0.26400
N1742       N  0.74114302  0.19249753  0.12180945     0.00600
H1743       H  0.81222967  0.17486998  0.10460460     0.06500
H1744       H  0.66468593  0.20387497  0.10429018     0.06500
N1745       N  0.72885163  0.32667077  0.12929292    -0.26500
N1746       N  0.68386250  0.23275345  0.16613002    -0.26100
N1747       N  0.81970985  0.25033636  0.12546267     0.00900
C1748       C  0.74390827  0.35233363  0.19706127     0.42300
C1749       C  0.78445364  0.16797833  0.17850744    -0.07300
N1750       N  0.68538784  0.23945183  0.12386272    -0.26100
H1751       H  0.65793230  0.19189565  0.17714157     0.06500
N1752       N  0.77091394  0.34257779  0.18700027    -0.47300
H1753       H  0.81018061  0.16325498  0.18146965     0.06500
C1754       C  0.75804071  0.16388037  0.09739506     0.42200
C1755       C  0.83983255  0.28515355  0.18375413    -0.06800
Co1756     Co  0.79685419  0.21918645  0.14522985     0.73800
N1757       N  0.72910936  0.16355568  0.17663014    -0.47000
C1758       C  0.74540566  0.35697444  0.10408698     0.42400
N1759       N  0.83757617  0.24145952  0.11010046    -0.47000
Co1760     Co  0.71225823  0.21225072  0.14401966     0.73900
C1761       C  0.66841160  0.22923796  0.10816075    -0.07300
C1762       C  0.71571615  0.33760360  0.18703891    -0.06900
N1763       N  0.81717081  0.28239850  0.12738487    -0.26400
N1764       N  0.65869142  0.27237135  0.18204874    -0.47200
H1765       H  0.69084435  0.34726088  0.11098285     0.06400
C1766       C  0.78628619  0.17816519  0.10739077    -0.07300
Cl1767     Cl  0.75083040  0.25782933  0.14716878    -0.50300
C1768       C  0.75557064  0.15159389  0.18629504     0.42200
H1769       H  0.83636483  0.32260544  0.11061997     0.06400
N1770       N  0.73088888  0.17394701  0.10706999    -0.47000
C1771       C  0.60005608  0.49599524  0.69193253     0.42100
N1772       N  0.56677512  0.47828071  0.66960179     0.00900
C1773       C  0.96616617  0.06986382  0.60591195    -0.06900
H1774       H  0.93815366  0.08434593  0.68023945     0.06400
C1775       C  0.90838850  0.46079517  0.68030919    -0.07300
Co1776     Co  0.53988758  0.03231631  0.64630648     0.74200
N1777       N  0.97592164  0.05793920  0.66438773    -0.26500
Co1778     Co  0.95191152  0.02895688  0.64355166     0.74100
C1779       C  0.89207532  0.49084250  0.68744779     0.42200
N1780       N  0.98585083  0.42195285  0.66880429     0.00600
N1781       N  0.92677070  0.00354616  0.66527683     0.00700
N1782       N  0.52533700  0.07238388  0.60946525    -0.47300
H1783       H  0.59141206  0.04835544  0.68352882     0.06400
N1784       N  0.51144250  0.05841439  0.66648928     0.01000
N1785       N  0.92959221  0.99915443  0.62277040     0.00700
C1786       C  0.90242836  0.48211526  0.59809983     0.42300
N1787       N  0.51824277  0.42387715  0.67036863    -0.25900
C1788       C  0.58487449  0.01631543  0.61092641    -0.06800
N1789       N  0.58864505  0.46868887  0.68295536    -0.47000
N1790       N  0.91195784  0.00905880  0.60752634    -0.47200
C1791       C  0.59770706  0.48923813  0.60232793     0.42100
N1792       N  0.51314741  0.05442216  0.62379623     0.00900
N1793       N  0.51981995  0.42016485  0.62745894    -0.25900
N1794       N  0.56644916  0.00924169  0.66858825    -0.26400
N1795       N  0.98672871  0.41904046  0.62585293     0.00600
H1796       H  0.55801885  0.39870521  0.60961511     0.06500
H1797       H  0.91430493  0.42823077  0.60544802     0.06500
N1798       N  0.97739235  0.05332217  0.62158199    -0.26500
N1799       N  0.92991481  0.47082539  0.66669715    -0.26100
N1800       N  0.56767198  0.47502577  0.62673279     0.00900
C1801       C  0.99290227  0.09341459  0.68708526     0.42300
C1802       C  0.53022101  0.40611706  0.68527691    -0.07300
N1803       N  0.93237359  0.46709325  0.62388098    -0.26100
H1804       H  0.90290365  0.43551253  0.68345164     0.06500
N1805       N  0.52219730  0.08024259  0.67937459    -0.47300
H1806       H  0.55603121  0.40234210  0.68847260     0.06500
C1807       C  0.00208440  0.38972857  0.60112070     0.42200
C1808       C  0.58686299  0.02244946  0.68183915    -0.06800
Co1809     Co  0.54365400  0.44876660  0.64857030     0.73800
N1810       N  0.97493896  0.40203227  0.68261675    -0.47000
C1811       C  0.99561323  0.08188221  0.59615282     0.42400
N1812       N  0.58714358  0.46328785  0.61276778    -0.47000
Co1813     Co  0.95820476  0.44410015  0.64643712     0.73900
C1814       C  0.91603110  0.45406117  0.60867167    -0.07300
C1815       C  0.96389012  0.07895957  0.67782007    -0.06900
N1816       N  0.56696083  0.00554276  0.62592859    -0.26400
N1817       N  0.90369955  0.01612305  0.67674872    -0.47200
H1818       H  0.94058864  0.07343997  0.60203574     0.06400
C1819       C  0.53218127  0.40190048  0.61277081    -0.07300
Cl1820     Cl  0.99770019  0.48909533  0.64572364    -0.50300
C1821       C  0.00149598  0.39142570  0.69291312     0.42200
H1822       H  0.58810776  0.04179250  0.60733355     0.06400
N1823       N  0.97568067  0.40058660  0.61124616    -0.47000
C1824       C  0.00135069  0.09153204  0.31297195     0.42100
N1825       N  0.98710297  0.05823530  0.33555964     0.00900
C1826       C  0.58286135  0.45289490  0.39079127    -0.06900
H1827       H  0.59341726  0.43128659  0.31716178     0.06400
C1828       C  0.96517658  0.40641116  0.31723996    -0.07300
Co1829     Co  0.54282848  0.02665709  0.35517401     0.74200
N1830       N  0.56574760  0.46773050  0.33285236    -0.26500
Co1831     Co  0.53836873  0.44240070  0.35398912     0.74100
C1832       C  0.99387221  0.39261640  0.30722096     0.42200
N1833       N  0.92776599  0.47706797  0.33350101     0.00600
N1834       N  0.50919531  0.42088036  0.33230662     0.00700
N1835       N  0.58410250  0.00857449  0.39113150    -0.47300
H1836       H  0.55463952  0.08033022  0.31802067     0.06400
N1837       N  0.56724734  0.00007357  0.33332300     0.01000
N1838       N  0.51081405  0.41829240  0.37537694     0.00700
C1839       C  0.99595362  0.38844503  0.39877733     0.42300
N1840       N  0.93212527  0.01025230  0.33497567    -0.25900
C1841       C  0.53029875  0.06920242  0.39253915    -0.06800
N1842       N  0.97532992  0.07999133  0.32292885    -0.47000
N1843       N  0.52226175  0.39893792  0.38949360    -0.47200
C1844       C  0.00498562  0.08047689  0.40403635     0.42100
N1845       N  0.56633230  0.99782756  0.37614823     0.00900
N1846       N  0.93456205  0.00736946  0.37768393    -0.25900
N1847       N  0.51761439  0.05460324  0.33430678    -0.26400
N1848       N  0.92925636  0.47608399  0.37639999     0.00600
H1849       H  0.91211110  0.04432118  0.39596050     0.06500
H1850       H  0.94109801  0.40006896  0.39353184     0.06500
N1851       N  0.56574705  0.46552243  0.37572326    -0.26500
N1852       N  0.97738242  0.42344002  0.33239022    -0.26100
N1853       N  0.98914657  0.05445451  0.37823314     0.00900
C1854       C  0.60239044  0.48635208  0.31095274     0.42300
C1855       C  0.91155946  0.02327232  0.32168032    -0.07300
N1856       N  0.97818881  0.42155561  0.37521862    -0.26100
H1857       H  0.93932381  0.40317350  0.31412950     0.06500
N1858       N  0.58951896  0.01201215  0.32126436    -0.47300
H1859       H  0.90698254  0.04916868  0.31971119     0.06500
C1860       C  0.89904563  0.49152562  0.40051369     0.42200
C1861       C  0.52904180  0.07495625  0.32058090    -0.06800
Co1862     Co  0.96032147  0.03311895  0.35656251     0.73800
N1863       N  0.90630373  0.46660780  0.32020575    -0.47000
C1864       C  0.59669694  0.48128987  0.40085289     0.42400
N1865       N  0.97839797  0.07163621  0.39343566    -0.47000
Co1866     Co  0.95261185  0.44894108  0.35439664     0.73900
C1867       C  0.96670283  0.40305912  0.38982600    -0.07300
C1868       C  0.58709844  0.45676927  0.31919321    -0.06900
N1869       N  0.51823146  0.05238499  0.37722249    -0.26400
N1870       N  0.51951907  0.40234121  0.31754307    -0.47200
H1871       H  0.58473736  0.42719599  0.39437360     0.06400
C1872       C  0.91654654  0.01876538  0.39266376    -0.07300
Cl1873     Cl  0.99774270  0.48832915  0.35455006    -0.50300
C1874       C  0.89474629  0.49343016  0.31076648     0.42200
H1875       H  0.55613213  0.07197742  0.39581636     0.06400
N1876       N  0.91012304  0.46494735  0.39055844    -0.47000
N1877       N  0.00646028  0.28986365  0.49935703    -0.37000
N1878       N  0.00438242  0.24057793  0.53005876    -0.57600
N1879       N  0.00609067  0.18959943  0.50057095    -0.37000
N1880       N  0.00621981  0.23862940  0.46986884    -0.57600
C1881       C  0.99855452  0.30850832  0.51514079     0.26600
C1882       C  0.99899085  0.30743526  0.48310433     0.26600
C1883       C  0.99799111  0.17197093  0.51656828     0.26600
C1884       C  0.99936250  0.17095846  0.48463315     0.26600
C1885       C  0.00964523  0.26739429  0.54126927     0.35200
C1886       C  0.00885607  0.21443727  0.54190332     0.35200
C1887       C  0.01180593  0.26460466  0.45820263     0.35200
C1888       C  0.01224191  0.21169788  0.45884514     0.35200
C1889       C  0.98630614  0.33849116  0.50887767    -0.22300
C1890       C  0.98640468  0.33774413  0.48862845    -0.22300
C1891       C  0.98618837  0.14168601  0.51074419    -0.22300
C1892       C  0.98721577  0.14096662  0.49057381    -0.22300
C1893       C  0.01730769  0.25823901  0.56036975    -0.23300
C1894       C  0.01685078  0.22464242  0.56075489    -0.23300
C1895       C  0.02143677  0.25411610  0.43966536    -0.23300
C1896       C  0.02151886  0.22055023  0.44004169    -0.23300
C1897       C  0.00442670  0.29993705  0.53496923    -0.18700
C1898       C  0.00518157  0.29746414  0.46350715    -0.18700
C1899       C  0.00646188  0.17937607  0.46502393    -0.18700
C1900       C  0.00294077  0.18170249  0.53628401    -0.18700
H1901       H  0.97840324  0.35889446  0.51794781     0.14200
H1902       H  0.97857835  0.35745531  0.47907066     0.14200
H1903       H  0.97813843  0.12193664  0.52006369     0.14200
H1904       H  0.98024467  0.12043702  0.48140633     0.14200
H1905       H  0.02197352  0.27410322  0.57284091     0.12500
H1906       H  0.02114612  0.20949067  0.57353416     0.12500
H1907       H  0.02709066  0.26906291  0.42705058     0.12500
H1908       H  0.02711167  0.20454682  0.42776124     0.12500
H1909       H  0.01979595  0.26803858  0.49971647     0.25800
H1910       H  0.01924294  0.21130564  0.50056977     0.25800
N1911       N  0.69657556  0.49460645  0.50182339    -0.37000
N1912       N  0.74871524  0.49254770  0.53068329    -0.57600
N1913       N  0.79763042  0.49704150  0.49959690    -0.37000
N1914       N  0.74557182  0.49628566  0.47076092    -0.57600
C1915       C  0.67917616  0.48684090  0.51800009     0.26600
C1916       C  0.67741202  0.48816375  0.48603478     0.26600
C1917       C  0.81669016  0.48823926  0.51501179     0.26600
C1918       C  0.81491912  0.49029981  0.48312462     0.26600
C1919       C  0.72291743  0.49642910  0.54292878     0.35200
C1920       C  0.77595186  0.49743061  0.54165101     0.35200
C1921       C  0.71807300  0.50141306  0.46001783     0.35200
C1922       C  0.77113817  0.50275971  0.45882912     0.35200
C1923       C  0.64823911  0.47612780  0.51246055    -0.22300
C1924       C  0.64719902  0.47675198  0.49224627    -0.22300
C1925       C  0.84660443  0.47623322  0.50831810    -0.22300
C1926       C  0.84546042  0.47747900  0.48814028    -0.22300
C1927       C  0.73381071  0.50352083  0.56179056    -0.23300
C1928       C  0.76743951  0.50431320  0.56096396    -0.23300
C1929       C  0.72621304  0.51132794  0.44119373    -0.23300
C1930       C  0.75986511  0.51225217  0.44045914    -0.23300
C1931       C  0.68981073  0.49132085  0.53760524    -0.18700
C1932       C  0.68593224  0.49399335  0.46626169    -0.18700
C1933       C  0.80440276  0.49703414  0.46376072    -0.18700
C1934       C  0.80838584  0.49240771  0.53495849    -0.18700
H1935       H  0.62839053  0.46881487  0.52197309     0.14200
H1936       H  0.62637991  0.47002356  0.48318094     0.14200
H1937       H  0.86716745  0.46759730  0.51706755     0.14200
H1938       H  0.86496327  0.46997536  0.47829278     0.14200
H1939       H  0.71912343  0.50722400  0.57484884     0.12500
H1940       H  0.78378263  0.50871883  0.57327492     0.12500
H1941       H  0.70962864  0.51666159  0.42912001     0.12500
H1942       H  0.77436634  0.51842242  0.42772627     0.12500
H1943       H  0.71871120  0.50695506  0.50162772     0.25800
H1944       H  0.77570399  0.51019643  0.50038970     0.25800
C1945       C  0.49928636  0.21133296  0.26653716     0.86100
C1946       C  0.53084534  0.21364630  0.25446406    -0.54200
C1947       C  0.53226650  0.23929476  0.24155375     0.09000
C1948       C  0.50148988  0.26190052  0.24306367     0.20000
C1949       C  0.99851371  0.24471814  0.27698441    -0.54900
C1950       C  0.49854658  0.27086604  0.26512326     0.09100
C1951       C  0.97340595  0.21292994  0.25098573    -0.54400
C1952       C  0.97400765  0.23937186  0.23870028     0.09700
H1953       H  0.55060741  0.19590163  0.25627716     0.14200
H1954       H  0.50168933  0.28280963  0.23299197    -0.00100
H1955       H  0.99601490  0.24834198  0.29265019     0.14500
H1956       H  0.95383876  0.19501825  0.25064191     0.14300
C1957       C  0.99394907  0.36423613  0.29361759    -0.06500
C1958       C  0.96629710  0.34389932  0.29308537    -0.17700
C1959       C  0.96668020  0.31424257  0.28283468     0.10700
C1960       C  0.99543837  0.30444281  0.27273174    -0.06500
C1961       C  0.52133152  0.32537728  0.27282292    -0.17700
C1962       C  0.52031298  0.35566347  0.28246011     0.10700
S1963       S  0.93021393  0.28942785  0.28438714    -0.32700
S1964       S  0.55551916  0.38163990  0.27992092    -0.32700
H1965       H  0.53741419  0.41114049  0.28020046     0.31500
H1966       H  0.93548940  0.27058371  0.26742323     0.28700
H1967       H  0.94454680  0.35022394  0.30141428     0.19300
H1968       H  0.54388008  0.31758695  0.26584993     0.19300
C1969       C  0.00084682  0.12218188  0.30172150    -0.06500
C1970       C  0.50241474  0.12004354  0.28102682    -0.17700
C1971       C  0.50141256  0.14845194  0.26954487     0.10700
C1972       C  0.00015691  0.18007474  0.27871387    -0.06500
C1973       C  0.99565714  0.18121935  0.29930521    -0.17700
C1974       C  0.99627722  0.15290024  0.31077808     0.10700
S1975       S  0.50394764  0.14385725  0.24307882    -0.32700
S1976       S  0.99114961  0.15773488  0.33698081    -0.32700
H1977       H  0.01256432  0.13216533  0.34242881     0.28700
H1978       H  0.50707087  0.10955990  0.24243857     0.28700
H1979       H  0.50536939  0.09629471  0.27408802     0.19300
H1980       H  0.99174347  0.20390888  0.30702829     0.19300
C1981       C  0.00457427  0.10391624  0.42080411    -0.06500
C1982       C  0.53130376  0.11686130  0.42722251    -0.17700
C1983       C  0.53289770  0.13975470  0.44251920     0.10700
C1984       C  0.00668761  0.15297896  0.45009471    -0.06500
C1985       C  0.97654359  0.14210916  0.44273195    -0.17700
C1986       C  0.97505790  0.11707410  0.42874771     0.10700
S1987       S  0.57321570  0.15174392  0.45094531    -0.32700
S1988       S  0.93468784  0.10251627  0.42253256    -0.32700
H1989       H  0.94372745  0.06953503  0.42532804     0.28700
H1990       H  0.56419627  0.16231489  0.46984462     0.28700
H1991       H  0.55419637  0.10772480  0.42125880     0.19300
H1992       H  0.95392881  0.15269338  0.44836785     0.19300
C1993       C  0.00275184  0.32199325  0.44745121    -0.06500
C1994       C  0.97770071  0.31831596  0.43339217    -0.17700
C1995       C  0.97553282  0.33883371  0.41706642     0.10700
C1996       C  0.99781429  0.36496745  0.41517910    -0.06500
C1997       C  0.52347696  0.36797912  0.43001559    -0.17700
C1998       C  0.52625482  0.34671365  0.44610450     0.10700
S1999       S  0.94557014  0.32852858  0.39849955    -0.32700
S2000       S  0.56187169  0.35072505  0.46178489    -0.32700
H2001       H  0.56489091  0.31736262  0.46647507     0.28700
H2002       H  0.96604686  0.33592125  0.38253875     0.28700
H2003       H  0.96049041  0.29835502  0.43476128     0.19300
H2004       H  0.54210805  0.38641805  0.42789872     0.19300
C2005       C  0.61818307  0.48240878  0.41832355    -0.06500
C2006       C  0.61353826  0.00699528  0.43194011    -0.17700
C2007       C  0.63551992  0.00992978  0.44770269     0.10700
C2008       C  0.66057541  0.48975773  0.45080887    -0.06500
C2009       C  0.66365070  0.46261816  0.43825246    -0.17700
C2010       C  0.64334079  0.45906328  0.42182889     0.10700
S2011       S  0.62895907  0.04319999  0.46483223    -0.32700
S2012       S  0.65317950  0.42611364  0.40512033    -0.32700
H2013       H  0.64989977  0.44540703  0.38813510     0.28700
H2014       H  0.66218650  0.04790555  0.46970201     0.28700
H2015       H  0.59309326  0.02408244  0.43079710     0.19300
H2016       H  0.68329703  0.44499308  0.44071042     0.19300
C2017       C  0.87494010  0.49165670  0.41673940    -0.06500
C2018       C  0.87724066  0.01569963  0.43091805    -0.17700
C2019       C  0.85395966  0.01785695  0.44591480     0.10700
C2020       C  0.82907444  0.49594181  0.44770967    -0.06500
C2021       C  0.82704226  0.47077997  0.43365495    -0.17700
C2022       C  0.84924138  0.46870639  0.41805174     0.10700
S2023       S  0.85530840  0.05322849  0.46190110    -0.32700
S2024       S  0.84214781  0.43742492  0.39982144    -0.32700
H2025       H  0.84682852  0.45844877  0.38376642     0.28700
H2026       H  0.82160546  0.05429065  0.46628704     0.28700
H2027       H  0.89512960  0.03500236  0.42968781     0.19300
H2028       H  0.80747186  0.45303625  0.43462846     0.19300
C2029       C  0.62072970  0.48829230  0.58534081    -0.06500
C2030       C  0.63084804  0.01508674  0.57603760    -0.17700
C2031       C  0.65152968  0.01604911  0.55978174     0.10700
C2032       C  0.66493470  0.49073530  0.55343412    -0.06500
C2033       C  0.65638695  0.46063234  0.56167547    -0.17700
C2034       C  0.63423658  0.45891400  0.57742531     0.10700
S2035       S  0.66263347  0.05579676  0.55053983    -0.32700
S2036       S  0.62396269  0.41905813  0.58696372    -0.32700
H2037       H  0.64355477  0.40026601  0.57411805     0.28700
H2038       H  0.66751427  0.04601892  0.53093330     0.28700
H2039       H  0.62291929  0.03818546  0.58223659     0.19300
H2040       H  0.66735261  0.43849346  0.55572574     0.19300
C2041       C  0.87959803  0.48270174  0.58120901    -0.06500
C2042       C  0.88031674  0.00890859  0.56840259    -0.17700
C2043       C  0.85768603  0.01253638  0.55305898     0.10700
C2044       C  0.83460585  0.48901653  0.54992642    -0.06500
C2045       C  0.83421355  0.46133262  0.56195411    -0.17700
C2046       C  0.85568003  0.45831918  0.57786647     0.10700
S2047       S  0.86082265  0.04847089  0.53786624    -0.32700
S2048       S  0.84845682  0.42470024  0.59425708    -0.32700
H2049       H  0.84995773  0.44424107  0.61132478     0.28700
H2050       H  0.82721032  0.05128490  0.53330408     0.28700
H2051       H  0.89893595  0.02744559  0.57048255     0.19300
H2052       H  0.81566578  0.44281884  0.55956215     0.19300
C2053       C  0.99728489  0.10616818  0.58009741    -0.06500
C2054       C  0.97184891  0.12946245  0.57827398    -0.17700
C2055       C  0.97317979  0.15427824  0.56413150     0.10700
C2056       C  0.00074975  0.15626860  0.55176791    -0.06500
C2057       C  0.02586056  0.13270841  0.55325776    -0.17700
C2058       C  0.02417083  0.10742149  0.56700555     0.10700
S2059       S  0.93945797  0.18303082  0.56166675    -0.32700
S2060       S  0.05625317  0.07675055  0.56635236    -0.32700
H2061       H  0.03562378  0.05035918  0.57079394     0.28700
H2062       H  0.91838474  0.16796982  0.57516043     0.28700
H2063       H  0.95113297  0.12859489  0.58816166     0.19300
H2064       H  0.04656167  0.13365855  0.54331148     0.19300
C2065       C  0.00118145  0.36844813  0.58321754    -0.06500
C2066       C  0.53135343  0.36469533  0.57339518    -0.17700
C2067       C  0.53353013  0.34357319  0.55719932     0.10700
C2068       C  0.00345598  0.32601450  0.55021728    -0.06500
C2069       C  0.97362858  0.33259242  0.55965338    -0.17700
C2070       C  0.97195823  0.35370846  0.57597453     0.10700
S2071       S  0.57112226  0.34371764  0.54323838    -0.32700
S2072       S  0.93243900  0.35999743  0.58751884    -0.32700
H2073       H  0.91328782  0.34358049  0.57337577     0.28700
H2074       H  0.57034401  0.31081611  0.53719203     0.28700
H2075       H  0.55219616  0.38003050  0.57679820     0.19300
H2076       H  0.95177868  0.32021353  0.55449739     0.19300
C2077       C  0.61745467  0.24191631  0.20252181    -0.06500
C2078       C  0.60100601  0.27117524  0.20750207    -0.17700
C2079       C  0.57333598  0.27183339  0.21988228     0.10700
C2080       C  0.56040840  0.24200261  0.22712676    -0.06500
C2081       C  0.57611426  0.21268813  0.22117519    -0.17700
C2082       C  0.60502894  0.21231621  0.21017929     0.10700
S2083       S  0.55693182  0.31142059  0.22664809    -0.32700
S2084       S  0.62557877  0.17321282  0.20841875    -0.32700
H2085       H  0.65657220  0.18600560  0.21333344     0.28700
H2086       H  0.57616432  0.33069270  0.21416113     0.28700
H2087       H  0.61040753  0.29400866  0.20195895     0.19300
H2088       H  0.56654601  0.18928716  0.22569786     0.19300
C2089       C  0.88776152  0.25084574  0.20149244    -0.06500
C2090       C  0.90190779  0.27858545  0.21023841    -0.17700
C2091       C  0.93080954  0.27651903  0.22163386     0.10700
C2092       C  0.94659318  0.24563848  0.22427989    -0.06500
C2093       C  0.93342827  0.21835908  0.21452198    -0.17700
C2094       C  0.90418934  0.22026892  0.20374854     0.10700
S2095       S  0.94542670  0.31359444  0.23315966    -0.32700
S2096       S  0.88905173  0.18204420  0.19416499    -0.32700
H2097       H  0.85895231  0.18498467  0.20416690     0.28700
H2098       H  0.92057040  0.33498539  0.22649412     0.28700
H2099       H  0.88984439  0.30205746  0.20852818     0.19300
H2100       H  0.94539070  0.19468071  0.21599267     0.19300
C2101       C  0.75759339  0.13861770  0.08191356    -0.06500
C2102       C  0.73283684  0.14086386  0.06758789    -0.17700
C2103       C  0.72964951  0.11713316  0.05289793     0.10700
C2104       C  0.75223833  0.09073112  0.05221789    -0.06500
C2105       C  0.77734926  0.08867758  0.06634195    -0.17700
C2106       C  0.77993456  0.11191428  0.08138075     0.10700
S2107       S  0.69625597  0.12200036  0.03558030    -0.32700
S2108       S  0.81069818  0.10455063  0.10000304    -0.32700
H2109       H  0.78992099  0.11274904  0.11578800     0.28700
H2110       H  0.69189541  0.08851645  0.03165120     0.28700
H2111       H  0.71560510  0.16118241  0.06796645     0.19300
H2112       H  0.79457981  0.06830539  0.06588529     0.19300
C2113       C  0.74680171  0.37679867  0.08572884    -0.06500
C2114       C  0.77374939  0.39764347  0.08312209    -0.17700
C2115       C  0.77566122  0.41865336  0.06693001     0.10700
C2116       C  0.74961115  0.41985098  0.05313256    -0.06500
C2117       C  0.72340129  0.39812612  0.05517496    -0.17700
C2118       C  0.72209662  0.37611729  0.07091236     0.10700
S2119       S  0.81172682  0.44373824  0.06484050    -0.32700
S2120       S  0.68922970  0.34685054  0.07032066    -0.32700
H2121       H  0.70891253  0.32057994  0.07689872     0.28700
H2122       H  0.81127111  0.44561342  0.04420844     0.28700
H2123       H  0.79337963  0.39795388  0.09393540     0.19300
H2124       H  0.70376776  0.39831050  0.04435589     0.19300
C2125       C  0.75541812  0.14103184  0.92068207    -0.06500
C2126       C  0.78227132  0.11940263  0.92278592    -0.17700
C2127       C  0.78289874  0.09532248  0.93739908     0.10700
C2128       C  0.75598588  0.09237972  0.95027762    -0.06500
C2129       C  0.72935514  0.11414998  0.94842830    -0.17700
C2130       C  0.72883916  0.13846266  0.93396000     0.10700
S2131       S  0.81839167  0.06864843  0.93855086    -0.32700
S2132       S  0.69381205  0.16569308  0.93363300    -0.32700
H2133       H  0.71207309  0.19393073  0.92957551     0.28700
H2134       H  0.81709148  0.06286938  0.95887553     0.28700
H2135       H  0.80280701  0.12080633  0.91276676     0.19300
H2136       H  0.70874411  0.11213064  0.95837432     0.19300
C2137       C  0.74593626  0.42063002  0.94994362    -0.06500
C2138       C  0.77382446  0.41897501  0.93800861    -0.17700
C2139       C  0.77488003  0.39855383  0.92152806     0.10700
C2140       C  0.74773065  0.37829241  0.91711073    -0.06500
C2141       C  0.72040718  0.37892107  0.92972565    -0.17700
C2142       C  0.71900458  0.40018222  0.94587382     0.10700
S2143       S  0.81075774  0.40139422  0.90625307    -0.32700
S2144       S  0.68204512  0.40048876  0.96042830    -0.32700
H2145       H  0.68289383  0.43382694  0.96556901     0.28700
H2146       H  0.79243329  0.40648302  0.88892132     0.28700
H2147       H  0.79442453  0.43486665  0.94112227     0.19300
H2148       H  0.69961222  0.36322244  0.92684305     0.19300
C2149       C  0.99742467  0.17975809  0.72406782    -0.06500
C2150       C  0.51876962  0.15274027  0.72837539    -0.17700
C2151       C  0.51854628  0.12472925  0.71645762     0.10700
C2152       C  0.99423388  0.12222859  0.70030120    -0.06500
C2153       C  0.97154343  0.14775903  0.69771753    -0.17700
C2154       C  0.97288523  0.17638480  0.70919000     0.10700
S2155       S  0.54612231  0.09095013  0.72197492    -0.32700
S2156       S  0.94307431  0.20837615  0.70414627    -0.32700
H2157       H  0.92196090  0.18982573  0.69214444     0.28700
H2158       H  0.56188843  0.10510259  0.73832780     0.28700
H2159       H  0.53564068  0.15258802  0.74050143     0.19300
H2160       H  0.95320720  0.14563517  0.68621760     0.19300
C2161       C  0.00193211  0.36219951  0.70592892    -0.06500
C2162       C  0.52899921  0.34031311  0.70592129    -0.17700
C2163       C  0.53013736  0.31115953  0.71657188     0.10700
C2164       C  0.00383772  0.30320934  0.72770876    -0.06500
C2165       C  0.97603495  0.32371747  0.72825641    -0.17700
C2166       C  0.97473763  0.35299956  0.71754755     0.10700
S2167       S  0.56616984  0.28553865  0.71367714    -0.32700
S2168       S  0.93764079  0.37724427  0.71933929    -0.32700
H2169       H  0.95373885  0.40757166  0.71920096     0.28700
H2170       H  0.56500741  0.27134708  0.73242008     0.28700
H2171       H  0.54914861  0.34558149  0.69612765     0.19300
H2172       H  0.95481820  0.31647672  0.73670038     0.19300
C2173       C  0.61169273  0.25009600  0.80182037    -0.06500
C2174       C  0.59046166  0.22350516  0.80428263    -0.17700
C2175       C  0.56101911  0.22103181  0.79366947     0.10700
C2176       C  0.55221831  0.24549623  0.77991288    -0.06500
C2177       C  0.57249969  0.27290659  0.77805648    -0.17700
C2178       C  0.60226450  0.27522348  0.78856919     0.10700
S2179       S  0.53585713  0.18569925  0.79825415    -0.32700
S2180       S  0.62825741  0.30948734  0.78315665    -0.32700
H2181       H  0.65765262  0.29109529  0.78318428     0.28700
H2182       H  0.50580347  0.20055564  0.79303028     0.28700
H2183       H  0.59666331  0.20438311  0.81465642     0.19300
H2184       H  0.56627256  0.29156159  0.76736601     0.19300
C2185       C  0.93729491  0.25179953  0.77285776    -0.06500
C2186       C  0.94207593  0.25540017  0.79319724    -0.17700
C2187       C  0.91532373  0.25852977  0.80610398     0.10700
C2188       C  0.88286382  0.25801483  0.79850564    -0.06500
C2189       C  0.87816966  0.25578154  0.77814493    -0.17700
C2190       C  0.90484534  0.25304624  0.76527744     0.10700
S2191       S  0.92466257  0.26174625  0.83202314    -0.32700
S2192       S  0.89558677  0.25173204  0.73935535    -0.32700
H2193       H  0.92532995  0.26533621  0.73313354     0.28700
H2194       H  0.89424203  0.27391065  0.83847917     0.28700
H2195       H  0.96681421  0.25460206  0.79915783     0.19300
H2196       H  0.85340851  0.25599288  0.77219726     0.19300
C2197       C  0.86214540  0.49404452  0.69999788    -0.06500
C2198       C  0.84949503  0.46601899  0.70913836    -0.17700
C2199       C  0.82160120  0.46763421  0.72132982     0.10700
C2200       C  0.80532171  0.49795203  0.72428984    -0.06500
C2201       C  0.81562270  0.02505470  0.71465353    -0.17700
C2202       C  0.84285688  0.02396876  0.70227127     0.10700
S2203       S  0.80814336  0.43091173  0.73326250    -0.32700
S2204       S  0.85442113  0.06227515  0.69140134    -0.32700
H2205       H  0.88527864  0.06237060  0.70083668     0.28700
H2206       H  0.83623294  0.41172737  0.72929792     0.28700
H2207       H  0.86178221  0.44271887  0.70703413     0.19300
H2208       H  0.80319996  0.04837232  0.71680326     0.19300
C2209       C  0.69153309  0.50324911  0.72441644    -0.06500
C2210       C  0.67249690  0.47488198  0.72589386    -0.17700
C2211       C  0.64227879  0.47207663  0.71594783     0.10700
C2212       C  0.63136618  0.49753593  0.70336656    -0.06500
C2213       C  0.65487943  0.02358238  0.70055074    -0.17700
C2214       C  0.68392359  0.02702237  0.71137543     0.10700
S2215       S  0.61791509  0.43649632  0.72105646    -0.32700
S2216       S  0.70892196  0.06226019  0.70635020    -0.32700
H2217       H  0.73911458  0.04675525  0.71055594     0.28700
H2218       H  0.58769617  0.45348574  0.72127650     0.28700
H2219       H  0.68029447  0.45550770  0.73568532     0.19300
H2220       H  0.64846615  0.04244590  0.69005910     0.19300
C2221       C  0.75209929  0.12749388  0.79975576    -0.06500
C2222       C  0.72788898  0.10397919  0.80304221    -0.17700
C2223       C  0.72665953  0.07492302  0.79200900     0.10700
C2224       C  0.75102824  0.06841854  0.77754522    -0.06500
C2225       C  0.77391223  0.09339603  0.77361062    -0.17700
C2226       C  0.77462822  0.12252761  0.78438448     0.10700
S2227       S  0.69277166  0.04745604  0.79622018    -0.32700
S2228       S  0.80365846  0.15311474  0.77679837    -0.32700
H2229       H  0.78296041  0.18007070  0.78077216     0.28700
H2230       H  0.68205137  0.06139984  0.81404547     0.28700
H2231       H  0.70979121  0.10838874  0.81438240     0.19300
H2232       H  0.79062179  0.09176353  0.76143790     0.19300
C2233       C  0.74457225  0.44465450  0.77391398    -0.06500
C2234       C  0.77418366  0.42818822  0.77776147    -0.17700
C2235       C  0.77484208  0.39778936  0.78713291     0.10700
C2236       C  0.74524886  0.38434328  0.79436147    -0.06500
C2237       C  0.71554821  0.40092955  0.79035026    -0.17700
C2238       C  0.71482488  0.43084502  0.78038300     0.10700
S2239       S  0.81428293  0.37755004  0.78893348    -0.32700
S2240       S  0.67500306  0.45015703  0.77743036    -0.32700
H2241       H  0.68503002  0.48115641  0.77137729     0.28700
H2242       H  0.80190394  0.34641792  0.78417459     0.28700
H2243       H  0.79715546  0.43926002  0.77353196     0.19300
H2244       H  0.69254046  0.39126844  0.79556202     0.19300
C2245       C  0.63166300  0.26203717  0.08251794    -0.06500
C2246       C  0.61085157  0.28968824  0.08170925    -0.17700
C2247       C  0.58707424  0.29318086  0.06689856     0.10700
C2248       C  0.58304557  0.26796891  0.05285617    -0.06500
C2249       C  0.60416080  0.24077128  0.05332147    -0.17700
C2250       C  0.62893121  0.23796114  0.06750364     0.10700
S2251       S  0.56260765  0.33021077  0.06678040    -0.32700
S2252       S  0.65717526  0.20420021  0.06443311    -0.32700
H2253       H  0.68511932  0.22254142  0.06945191     0.28700
H2254       H  0.55685882  0.33083133  0.04639616     0.28700
H2255       H  0.61295300  0.30876507  0.09275032     0.19300
H2256       H  0.60171651  0.22183477  0.04220018     0.19300
C2257       C  0.86893795  0.27093928  0.08393851    -0.06500
C2258       C  0.88942735  0.29822197  0.08191256    -0.17700
C2259       C  0.91168559  0.30037336  0.06638438     0.10700
C2260       C  0.91413271  0.27437908  0.05272681    -0.06500
C2261       C  0.89293981  0.24769964  0.05425614    -0.17700
C2262       C  0.87010922  0.24579586  0.06956311     0.10700
S2263       S  0.93656500  0.33662836  0.06495008    -0.32700
S2264       S  0.84189640  0.21185964  0.06994360    -0.32700
H2265       H  0.85441830  0.19507404  0.05346837     0.28700
H2266       H  0.94076980  0.33591872  0.04445557     0.28700
H2267       H  0.88852220  0.31787265  0.09264467     0.19300
H2268       H  0.89464214  0.22819371  0.04346720     0.19300
C2269       C  0.63012841  0.26147146  0.91932638    -0.06500
C2270       C  0.62428060  0.23292645  0.93024815    -0.17700
C2271       C  0.60208228  0.23260240  0.94589054     0.10700
C2272       C  0.58491469  0.26159019  0.95087243    -0.06500
C2273       C  0.59127466  0.29038244  0.94053440    -0.17700
C2274       C  0.61346273  0.29073094  0.92488506     0.10700
S2275       S  0.59635273  0.19399740  0.95825022    -0.32700
S2276       S  0.61827482  0.32920844  0.91249736    -0.32700
H2277       H  0.60818685  0.31640118  0.89422032     0.28700
H2278       H  0.57830834  0.20514597  0.97448866     0.28700
H2279       H  0.63683247  0.21033516  0.92657257     0.19300
H2280       H  0.57812791  0.31266709  0.94441430     0.19300
C2281       C  0.91418198  0.26850714  0.95007838    -0.06500
C2282       C  0.91671865  0.29294987  0.93578536    -0.17700
C2283       C  0.89708984  0.29252225  0.91893566     0.10700
C2284       C  0.87266242  0.26833150  0.91684773    -0.06500
C2285       C  0.86954928  0.24434118  0.93141523    -0.17700
C2286       C  0.89041956  0.24380097  0.94780625     0.10700
S2287       S  0.90693579  0.32144508  0.89996133    -0.32700
S2288       S  0.88610350  0.21055454  0.96492314    -0.32700
H2289       H  0.91960123  0.20790155  0.96983821     0.28700
H2290       H  0.90242769  0.29913968  0.88436915     0.28700
H2291       H  0.93556698  0.31141264  0.93725347     0.19300
H2292       H  0.85105150  0.22555763  0.92986695     0.19300
C2293       C  0.86405064  0.49460440  0.29894855    -0.06500
C2294       C  0.84375004  0.02331822  0.30249972    -0.17700
C2295       C  0.81470993  0.02594437  0.29162809     0.10700
C2296       C  0.80556949  0.50101496  0.27650246    -0.06500
C2297       C  0.82566513  0.47310190  0.27457867    -0.17700
C2298       C  0.85478453  0.46962014  0.28559140     0.10700
S2299       S  0.78858381  0.06064163  0.29663871    -0.32700
S2300       S  0.87971960  0.43368419  0.28110895    -0.32700
H2301       H  0.90996647  0.44997876  0.28236076     0.28700
H2302       H  0.75957906  0.04301769  0.29357355     0.28700
H2303       H  0.84947174  0.04249021  0.31298383     0.19300
H2304       H  0.81964085  0.45470551  0.26374074     0.19300
C2305       C  0.68991635  0.50357651  0.27600710    -0.06500
C2306       C  0.67572615  0.47237548  0.27593529    -0.17700
C2307       C  0.64718185  0.46555615  0.28679370     0.10700
C2308       C  0.63271751  0.49040041  0.29866799    -0.06500
C2309       C  0.64965983  0.02149925  0.29992922    -0.17700
C2310       C  0.67748775  0.02837141  0.28859004     0.10700
S2311       S  0.62931732  0.42554778  0.28427823    -0.32700
S2312       S  0.69520480  0.06873111  0.29015680    -0.32700
H2313       H  0.67350993  0.08201661  0.30417040     0.28700
H2314       H  0.64983005  0.41369853  0.26920346     0.28700
H2315       H  0.68653316  0.45347906  0.26675628     0.19300
H2316       H  0.63938420  0.04077217  0.30902221     0.19300
C2317       C  0.75179323  0.06589351  0.22321356    -0.06500
C2318       C  0.74916100  0.06317533  0.20249714    -0.17700
C2319       C  0.75083210  0.09045080  0.19016447     0.10700
C2320       C  0.75523072  0.12177883  0.19837443    -0.06500
C2321       C  0.75737393  0.12518064  0.21876401    -0.17700
C2322       C  0.75508008  0.09800352  0.23125627     0.10700
S2323       S  0.74651905  0.08344221  0.16403285    -0.32700
S2324       S  0.75584811  0.10545231  0.25744192    -0.32700
H2325       H  0.75125357  0.13959580  0.25677380     0.28700
H2326       H  0.76511967  0.11022770  0.15780367     0.28700
H2327       H  0.74526457  0.04009382  0.19529194     0.19300
H2328       H  0.76028251  0.14948194  0.22492801     0.19300
C2329       C  0.74228271  0.44231841  0.23038803    -0.06500
C2330       C  0.76741730  0.41928025  0.23364989    -0.17700
C2331       C  0.76799029  0.38919647  0.22360159     0.10700
C2332       C  0.74285349  0.38185162  0.20986936    -0.06500
C2333       C  0.71680583  0.40427581  0.20746070    -0.17700
C2334       C  0.71613414  0.43412405  0.21758071     0.10700
S2335       S  0.80172947  0.36159670  0.22874200    -0.32700
S2336       S  0.68154756  0.46104327  0.21302706    -0.32700
H2337       H  0.68190060  0.47625826  0.23157264     0.28700
H2338       H  0.78367388  0.33274679  0.22589839     0.28700
H2339       H  0.78742598  0.42518445  0.24347452     0.19300
H2340       H  0.69721201  0.39914512  0.19710657     0.19300
C2341       C  0.74882018  0.53587233  0.23612707     0.86100
C2342       C  0.77923576  0.53262887  0.24946820    -0.54200
C2343       C  0.77987670  0.00682089  0.26304060     0.09000
C2344       C  0.74903491  0.98537021  0.26076675     0.20000
C2345       C  0.74731073  0.50221005  0.22573163    -0.54900
C2346       C  0.74791927  0.97551865  0.23887920     0.09100
C2347       C  0.71918912  0.53569544  0.25007304    -0.54400
C2348       C  0.71985908  0.00953309  0.26322077     0.09700
H2349       H  0.79974763  0.54944360  0.24897790     0.14200
H2350       H  0.74845858  0.96426601  0.27098705    -0.00100
H2351       H  0.74924948  0.99703809  0.21073340     0.14500
H2352       H  0.69964560  0.55389065  0.24922603     0.14300
N2353       N  0.94656094  0.76968685  0.00149566    -0.37000
N2354       N  0.49802500  0.76919929  0.97112871    -0.57600
N2355       N  0.54868439  0.76787947  0.00110996    -0.37000
N2356       N  0.49889539  0.77141903  0.03134839    -0.57600
C2357       C  0.92808956  0.77726532  0.98558035     0.26600
C2358       C  0.92875995  0.77766528  0.01756049     0.26600
C2359       C  0.56693747  0.77375718  0.98501246     0.26600
C2360       C  0.56734939  0.77544375  0.01690465     0.26600
C2361       C  0.96953209  0.76378613  0.96001775     0.35200
C2362       C  0.52435739  0.76180976  0.95987871     0.35200
C2363       C  0.97107682  0.76471345  0.04275866     0.35200
C2364       C  0.52564163  0.76569100  0.04267980     0.35200
C2365       C  0.89808763  0.79010480  0.99158175    -0.22300
C2366       C  0.89847843  0.79026744  0.01182593    -0.22300
C2367       C  0.59765917  0.78498656  0.99059881    -0.22300
C2368       C  0.59791610  0.78607942  0.01079675    -0.22300
C2369       C  0.97883883  0.75336172  0.94139504    -0.23300
C2370       C  0.51433961  0.75124911  0.94144143    -0.23300
C2371       C  0.98097990  0.75415933  0.06120226    -0.23300
C2372       C  0.51629981  0.75693614  0.06148392    -0.23300
C2373       C  0.93684741  0.77044436  0.96590689    -0.18700
C2374       C  0.93837326  0.77159281  0.03716963    -0.18700
C2375       C  0.55833212  0.77052796  0.03663982    -0.18700
C2376       C  0.55731679  0.76678616  0.96554445    -0.18700
H2377       H  0.87781117  0.79795145  0.98234245     0.14200
H2378       H  0.87859923  0.79832658  0.02124724     0.14200
H2379       H  0.61793911  0.79121813  0.98112141     0.14200
H2380       H  0.61843732  0.79337126  0.01995082     0.14200
H2381       H  0.96301570  0.74707918  0.92914129     0.12500
H2382       H  0.52968320  0.74399901  0.92918942     0.12500
H2383       H  0.96554279  0.74831011  0.07359272     0.12500
H2384       H  0.53208373  0.75135087  0.07389015     0.12500
H2385       H  0.96826093  0.75612786  0.00140407     0.25800
H2386       H  0.52654746  0.75545894  0.00135098     0.25800
C2387       C  0.75008082  0.53677269  0.76427844     0.86100
C2388       C  0.74814947  0.50496037  0.77605492    -0.54200
C2389       C  0.74591693  0.97741900  0.76608662     0.09000
C2390       C  0.74771847  0.98339014  0.74368839     0.20000
C2391       C  0.78037157  0.53094015  0.75113394    -0.54900
C2392       C  0.77964273  0.00292969  0.74062968     0.09100
C2393       C  0.72082563  0.53585279  0.74999924    -0.54400
C2394       C  0.72003939  0.00830435  0.73957253     0.09700
H2395       H  0.74859700  0.00453440  0.79321827     0.14200
H2396       H  0.74576641  0.96092223  0.73455839    -0.00100
H2397       H  0.80204299  0.54599424  0.75107772     0.14500
H2398       H  0.70245284  0.55526360  0.74930910     0.14300
C2399       C  0.49708233  0.70811904  0.73875068     0.86100
C2400       C  0.52540208  0.70937137  0.75390785    -0.54200
C2401       C  0.52610129  0.73697732  0.76517236     0.09000
C2402       C  0.49880551  0.76193779  0.75997226     0.20000
C2403       C  0.96514811  0.71466898  0.75071994    -0.54900
C2404       C  0.96413614  0.74286874  0.76153501     0.09100
C2405       C  0.50201499  0.73948502  0.72673532    -0.54400
C2406       C  0.50283790  0.76764444  0.73769231     0.09700
H2407       H  0.54492788  0.69151429  0.75544089     0.14200
H2408       H  0.49944306  0.78470170  0.76895242    -0.00100
H2409       H  0.94526697  0.69709628  0.75085489     0.14500
H2410       H  0.50424265  0.73947404  0.71083279     0.14300
N2411       N  0.74475473  0.95604273  0.00100230    -0.37000
N2412       N  0.74964989  0.50409312  0.03132994    -0.57600
N2413       N  0.75047177  0.55471306  0.00088917    -0.37000
N2414       N  0.74940447  0.50493642  0.97104228    -0.57600
C2415       C  0.75076874  0.93721133  0.01701985     0.26600
C2416       C  0.75166886  0.93774120  0.98488512     0.26600
C2417       C  0.75801883  0.57242324  0.01706182     0.26600
C2418       C  0.75898905  0.57270559  0.98507586     0.26600
C2419       C  0.74050993  0.97989597  0.04241707     0.35200
C2420       C  0.74431545  0.53102373  0.04247524     0.35200
C2421       C  0.74407686  0.98098559  0.95936936     0.35200
C2422       C  0.74573668  0.53157363  0.95944298     0.35200
C2423       C  0.76122208  0.90640703  0.01095259    -0.22300
C2424       C  0.76167425  0.90670762  0.99067655    -0.22300
C2425       C  0.77122673  0.60216080  0.01153033    -0.22300
C2426       C  0.77194464  0.60229327  0.99131391    -0.22300
C2427       C  0.73040957  0.99032977  0.06085742    -0.23300
C2428       C  0.73454845  0.52210839  0.06119472    -0.23300
C2429       C  0.73630204  0.99132443  0.94048599    -0.23300
C2430       C  0.73569231  0.52228247  0.94078308    -0.23300
C2431       C  0.74583422  0.94684849  0.03688286    -0.18700
C2432       C  0.74739884  0.94783933  0.96511440    -0.18700
C2433       C  0.75336087  0.56392294  0.96521606    -0.18700
C2434       C  0.75101603  0.56338441  0.03658718    -0.18700
H2435       H  0.76773156  0.88579507  0.02015864     0.14200
H2436       H  0.76851815  0.88635998  0.98126115     0.14200
H2437       H  0.77916487  0.62187603  0.02106865     0.14200
H2438       H  0.78061764  0.62210249  0.98224779     0.14200
H2439       H  0.72339379  0.97528860  0.07317610     0.12500
H2440       H  0.72898271  0.53811466  0.07348163     0.12500
H2441       H  0.73006193  0.97628240  0.92789656     0.12500
H2442       H  0.73113266  0.53792816  0.92825341     0.12500
H2443       H  0.73338939  0.97889875  0.00090799     0.25800
H2444       H  0.73661851  0.53349537  0.00076608     0.25800
C2445       C  0.84604266  0.76935508  0.90064698     0.42100
N2446       N  0.81745160  0.75000585  0.87690673     0.00900
C2447       C  0.71322425  0.83915790  0.81628370    -0.06900
H2448       H  0.69008796  0.84932007  0.89261564     0.06400
C2449       C  0.66614542  0.73093540  0.89456310    -0.07300
Co2450     Co  0.78673625  0.80331130  0.85299932     0.74200
N2451       N  0.72705455  0.82723161  0.87404345    -0.26500
Co2452     Co  0.70204976  0.79739861  0.85412557     0.74100
C2453       C  0.65204988  0.76108310  0.90268638     0.42200
N2454       N  0.73840795  0.69254890  0.88044685     0.00600
N2455       N  0.68025844  0.77261557  0.87718965     0.00700
N2456       N  0.76843029  0.84286950  0.81679696    -0.47300
H2457       H  0.83351899  0.82249102  0.89212074     0.06400
N2458       N  0.75933935  0.82930926  0.87369684     0.01000
N2459       N  0.67763724  0.76651338  0.83451668     0.00700
C2460       C  0.64342039  0.74773033  0.81313443     0.42300
N2461       N  0.77071553  0.69472287  0.87980680    -0.25900
C2462       C  0.83291471  0.78674523  0.81788428    -0.06800
N2463       N  0.83604513  0.74127547  0.89205258    -0.47000
N2464       N  0.65556173  0.77546134  0.82116122    -0.47200
C2465       C  0.84938491  0.75734622  0.81051542     0.42100
N2466       N  0.75781733  0.82370039  0.83094442     0.00900
N2467       N  0.76890220  0.68926508  0.83718029    -0.25900
N2468       N  0.81454307  0.78205095  0.87520928    -0.26400
N2469       N  0.73657552  0.68690252  0.83760793     0.00600
H2470       H  0.80631881  0.66339355  0.82104819     0.06500
H2471       H  0.65531093  0.69444858  0.82197688     0.06500
N2472       N  0.72555287  0.82131177  0.83114301    -0.26500
N2473       N  0.68305833  0.74055190  0.87880309    -0.26100
N2474       N  0.81711221  0.74423066  0.83409152     0.00900
C2475       C  0.74495864  0.86051730  0.89771972     0.42300
C2476       C  0.78360146  0.67772636  0.89485632    -0.07300
N2477       N  0.68044689  0.73442898  0.83610591    -0.26100
H2478       H  0.66295586  0.70586362  0.89915803     0.06500
N2479       N  0.77103169  0.84877796  0.88762905    -0.47300
H2480       H  0.80953137  0.67401404  0.89770443     0.06500
C2481       C  0.75145407  0.65321622  0.81501056     0.42200
C2482       C  0.83164634  0.79641388  0.88964003    -0.06800
Co2483     Co  0.79412507  0.71904814  0.85697295     0.73800
N2484       N  0.72817527  0.67474565  0.89543528    -0.47000
C2485       C  0.74191505  0.85359439  0.80665214     0.42400
N2486       N  0.83877666  0.73201582  0.82146092    -0.47000
Co2487     Co  0.70914182  0.71304323  0.85825519     0.73900
C2488       C  0.65980814  0.72043362  0.82320815    -0.07300
C2489       C  0.71566362  0.84607686  0.88876494    -0.06900
N2490       N  0.81362261  0.77626594  0.83246579    -0.26400
N2491       N  0.66202503  0.78586329  0.89120982    -0.47200
H2492       H  0.68733922  0.84343538  0.81360453     0.06400
C2493       C  0.78058402  0.66855480  0.82356721    -0.07300
Cl2494     Cl  0.74800680  0.75815647  0.85550301    -0.50300
C2495       C  0.75531065  0.66490445  0.90538979     0.42200
H2496       H  0.83738022  0.81207123  0.81428490     0.06400
N2497       N  0.72514936  0.66537366  0.82472920    -0.47000
C2498       C  0.85517481  0.75469400  0.18876373     0.42100
N2499       N  0.81796413  0.74372842  0.16722869     0.00900
C2500       C  0.71517640  0.84425546  0.11315335    -0.06900
H2501       H  0.68833290  0.84268566  0.18888234     0.06400
C2502       C  0.66272437  0.71898559  0.17877723    -0.07300
Co2503     Co  0.78781742  0.80337486  0.14912628     0.74200
N2504       N  0.72686737  0.82127572  0.17128319    -0.26500
Co2505     Co  0.70292461  0.79692054  0.14830757     0.74100
C2506       C  0.64788924  0.74557849  0.19026664     0.42200
N2507       N  0.73763656  0.68629751  0.16420957     0.00600
N2508       N  0.67959925  0.76562287  0.16808549     0.00700
N2509       N  0.77053355  0.84741940  0.11380415    -0.47300
H2510       H  0.84465054  0.81027031  0.18589166     0.06400
N2511       N  0.75917542  0.82394589  0.17169694     0.01000
N2512       N  0.68082208  0.77166696  0.12505259     0.00700
C2513       C  0.65508537  0.75979858  0.09839145     0.42300
N2514       N  0.76992355  0.68911913  0.16486204    -0.25900
C2515       C  0.83139093  0.79545872  0.11180583    -0.06800
N2516       N  0.84093437  0.73047196  0.17845131    -0.47000
N2517       N  0.66373129  0.78470452  0.11042534    -0.47200
C2518       C  0.84422986  0.76791137  0.10031359     0.42100
N2519       N  0.75947531  0.82926908  0.12845707     0.00900
N2520       N  0.77074231  0.69441249  0.12217397    -0.25900
N2521       N  0.81594464  0.77582523  0.16917203    -0.26400
N2522       N  0.73856373  0.69143590  0.12170858     0.00600
H2523       H  0.80978934  0.67375365  0.10484662     0.06500
H2524       H  0.66418629  0.70445546  0.10298886     0.06500
N2525       N  0.72718075  0.82684712  0.12830852    -0.26500
N2526       N  0.68215666  0.73366216  0.16582570    -0.26100
N2527       N  0.81710041  0.74959456  0.12480131     0.00900
C2528       C  0.74261648  0.85296983  0.19639069     0.42300
C2529       C  0.78178554  0.66858062  0.17855450    -0.07300
N2530       N  0.68358705  0.73958557  0.12344736    -0.26100
H2531       H  0.65756444  0.69313801  0.17851733     0.06500
N2532       N  0.76952994  0.84291547  0.18630721    -0.47300
H2533       H  0.80748526  0.66377002  0.18154535     0.06500
C2534       C  0.75579502  0.66090124  0.09813480     0.42200
C2535       C  0.83845712  0.78515264  0.18258800    -0.06800
Co2536     Co  0.79435142  0.71890799  0.14480004     0.73800
N2537       N  0.72642664  0.66429983  0.17666862    -0.47000
C2538       C  0.74404535  0.85729289  0.10321236     0.42400
N2539       N  0.83473582  0.74032822  0.10943580    -0.47000
Co2540     Co  0.70995202  0.71233350  0.14374458     0.73900
C2541       C  0.66752114  0.72968660  0.10732535    -0.07300
C2542       C  0.71425644  0.83874240  0.18623367    -0.06900
N2543       N  0.81474874  0.78170497  0.12652385    -0.26400
N2544       N  0.65916202  0.77382064  0.18244932    -0.47200
H2545       H  0.68943716  0.84716276  0.10953277     0.06400
C2546       C  0.78381460  0.67648581  0.10764713    -0.07300
Cl2547     Cl  0.74878371  0.75790849  0.14659771    -0.50300
C2548       C  0.75281748  0.65252611  0.18646180     0.42200
H2549       H  0.83383401  0.82146009  0.10938901     0.06400
N2550       N  0.72850841  0.67155703  0.10752768    -0.47000
C2551       C  0.60365418  0.99465773  0.69106746     0.42100
N2552       N  0.56942255  0.97707710  0.66929250     0.00900
C2553       C  0.96624100  0.57012894  0.60635304    -0.06900
H2554       H  0.93771368  0.58268440  0.68108395     0.06400
C2555       C  0.90667768  0.96124887  0.67976006    -0.07300
Co2556     Co  0.53688848  0.53317318  0.64636742     0.74200
N2557       N  0.97592247  0.55750820  0.66494714    -0.26500
Co2558     Co  0.95231665  0.52882058  0.64383411     0.74100
C2559       C  0.88977392  0.99115144  0.68650566     0.42200
N2560       N  0.98461094  0.92221975  0.66930918     0.00600
N2561       N  0.92774550  0.50298775  0.66542489     0.00700
N2562       N  0.52180264  0.57313684  0.60918310    -0.47300
H2563       H  0.58737922  0.54963614  0.68438264     0.06400
N2564       N  0.50753359  0.55813435  0.66648864     0.01000
N2565       N  0.93008925  0.49925471  0.62286719     0.00700
C2566       C  0.90185855  0.98180471  0.59810431     0.42300
N2567       N  0.52000183  0.92329661  0.67078393    -0.25900
C2568       C  0.58299152  0.51840272  0.61136750    -0.06800
N2569       N  0.59170465  0.96733993  0.68236201    -0.47000
N2570       N  0.91239977  0.50928877  0.60766838    -0.47200
C2571       C  0.59850742  0.98681417  0.60167679     0.42100
N2572       N  0.51001587  0.55504075  0.62361170     0.00900
N2573       N  0.51984385  0.91953552  0.62790292    -0.25900
N2574       N  0.56344425  0.51040245  0.66891668    -0.26400
N2575       N  0.98574969  0.91858925  0.62628455     0.00600
H2576       H  0.55672453  0.89751070  0.60933557     0.06500
H2577       H  0.91339383  0.92795972  0.60573621     0.06500
N2578       N  0.97755856  0.55375825  0.62205543    -0.26500
N2579       N  0.92892970  0.97137190  0.66663139    -0.26100
N2580       N  0.56891521  0.97335205  0.62645076     0.00900
C2581       C  0.99226097  0.59232834  0.68821626     0.42300
C2582       C  0.53231334  0.90436227  0.68508795    -0.07300
N2583       N  0.93175040  0.96699672  0.62393911    -0.26100
H2584       H  0.90100368  0.93593096  0.68266701     0.06500
N2585       N  0.51780219  0.57904369  0.68001435    -0.47300
H2586       H  0.55816883  0.89956329  0.68759887     0.06500
C2587       C  0.00104582  0.88948378  0.60145519     0.42200
C2588       C  0.58320654  0.52369464  0.68253118    -0.06800
Co2589     Co  0.54505355  0.94775633  0.64863544     0.73800
N2590       N  0.97345308  0.90249292  0.68316955    -0.47000
C2591       C  0.99559268  0.58255295  0.59668565     0.42400
N2592       N  0.58765503  0.96113805  0.61225995    -0.47000
Co2593     Co  0.95729111  0.94420015  0.64667512     0.73900
C2594       C  0.91534006  0.95382937  0.60880037    -0.07300
C2595       C  0.96353691  0.57778946  0.67866353    -0.06900
N2596       N  0.56493872  0.50716730  0.62617695    -0.26400
N2597       N  0.90551411  0.51565939  0.67738165    -0.47200
H2598       H  0.94065742  0.57325362  0.60235940     0.06400
C2599       C  0.53112173  0.90115094  0.61295590    -0.07300
Cl2600     Cl  0.99706313  0.98888049  0.64569231    -0.50300
C2601       C  0.99983887  0.89159347  0.69353228     0.42200
H2602       H  0.58566556  0.54396887  0.60779556     0.06400
N2603       N  0.97464682  0.90040496  0.61156904    -0.47000
C2604       C  0.99918213  0.58936873  0.31088603     0.42100
N2605       N  0.98480105  0.55726726  0.33404347     0.00900
C2606       C  0.58159874  0.95321900  0.39066115    -0.06900
H2607       H  0.59552740  0.93154236  0.31823924     0.06400
C2608       C  0.96535486  0.90624615  0.31689280    -0.07300
Co2609     Co  0.54430494  0.52686930  0.35557328     0.74200
N2610       N  0.56600463  0.96784596  0.33273556    -0.26500
Co2611     Co  0.53821453  0.94206591  0.35340089     0.74100
C2612       C  0.99352937  0.89193691  0.30656032     0.42200
N2613       N  0.92951511  0.97811199  0.33429610     0.00600
N2614       N  0.50986075  0.92026663  0.33134480     0.00700
N2615       N  0.58628775  0.50816342  0.39114288    -0.47300
H2616       H  0.55609163  0.57914513  0.31764824     0.06400
N2617       N  0.56733737  0.49992791  0.33345552     0.01000
N2618       N  0.51046305  0.91724609  0.37431992     0.00700
C2619       C  0.99876193  0.88697962  0.39776885     0.42300
N2620       N  0.93049506  0.50918344  0.33367354    -0.25900
C2621       C  0.53301845  0.56906217  0.39341879    -0.06800
N2622       N  0.97309433  0.57800106  0.32082011    -0.47000
N2623       N  0.52187299  0.89753696  0.38824976    -0.47200
C2624       C  0.00005066  0.58341423  0.40235178     0.42100
N2625       N  0.56807750  0.49769878  0.37629162     0.00900
N2626       N  0.93127852  0.50828699  0.37648722    -0.25900
N2627       N  0.51908281  0.55502744  0.33483067    -0.26400
N2628       N  0.93235305  0.97520371  0.37709319     0.00600
H2629       H  0.90855067  0.54587157  0.39422389     0.06500
H2630       H  0.94398242  0.89971063  0.39331159     0.06500
N2631       N  0.56452310  0.96559735  0.37551296    -0.26500
N2632       N  0.97831613  0.92369454  0.33167798    -0.26100
N2633       N  0.98531188  0.55605771  0.37680628     0.00900
C2634       C  0.60417710  0.98654908  0.31188492     0.42300
C2635       C  0.91082182  0.52167790  0.31978311    -0.07300
N2636       N  0.98073538  0.92041029  0.37446924    -0.26100
H2637       H  0.93936830  0.90268660  0.31438712     0.06500
N2638       N  0.58860000  0.51178920  0.32077371    -0.47300
H2639       H  0.90656035  0.54749982  0.31730936     0.06500
C2640       C  0.90232290  0.98973803  0.40154625     0.42200
C2641       C  0.53047851  0.57441318  0.32059446    -0.06800
Co2642     Co  0.95755379  0.53321314  0.35520965     0.73800
N2643       N  0.90755585  0.96813981  0.32119176    -0.47000
C2644       C  0.59469174  0.98181799  0.40086131     0.42400
N2645       N  0.97387298  0.57371353  0.39165246    -0.47000
Co2646     Co  0.95474617  0.94881435  0.35438246     0.73900
C2647       C  0.96947632  0.90206798  0.38918482    -0.07300
C2648       C  0.58853204  0.95694900  0.31977811    -0.06900
N2649       N  0.52064639  0.55296134  0.37787471    -0.26400
N2650       N  0.52050185  0.90169092  0.31665531    -0.47200
H2651       H  0.58448380  0.92751105  0.39402545     0.06400
C2652       C  0.91308828  0.52023364  0.39123858    -0.07300
Cl2653     Cl  0.00009515  0.98781929  0.35462111    -0.50300
C2654       C  0.89536156  0.99525323  0.31240930     0.42200
H2655       H  0.55887477  0.57118690  0.39683492     0.06400
N2656       N  0.91325810  0.96359513  0.39112630    -0.47000
N2657       N  0.00575309  0.79011058  0.49935286    -0.37000
N2658       N  0.00257177  0.74080386  0.53011402    -0.57600
N2659       N  0.00172000  0.68977050  0.50059080    -0.37000
N2660       N  0.00263027  0.73881263  0.46986523    -0.57600
C2661       C  0.99877396  0.80914522  0.51513375     0.26600
C2662       C  0.99964485  0.80811956  0.48307374     0.26600
C2663       C  0.99423738  0.67226298  0.51673986     0.26600
C2664       C  0.99369851  0.67135937  0.48476263     0.26600
C2665       C  0.00840623  0.76756271  0.54129093     0.35200
C2666       C  0.00710071  0.71456754  0.54189327     0.35200
C2667       C  0.00975851  0.76443405  0.45821744     0.35200
C2668       C  0.00726751  0.71161104  0.45882774     0.35200
C2669       C  0.98860091  0.83985743  0.50882422    -0.22300
C2670       C  0.98906123  0.83917710  0.48856882    -0.22300
C2671       C  0.98143845  0.64226655  0.51112295    -0.22300
C2672       C  0.98118521  0.64165349  0.49090921    -0.22300
C2673       C  0.01643514  0.75827801  0.56031400    -0.23300
C2674       C  0.01573059  0.72467781  0.56066941    -0.23300
C2675       C  0.01885575  0.75343757  0.43968791    -0.23300
C2676       C  0.01705326  0.71996740  0.44003651    -0.23300
C2677       C  0.00381020  0.80024440  0.53501490    -0.18700
C2678       C  0.00509545  0.79764635  0.46347836    -0.18700
C2679       C  0.00040200  0.67952280  0.46505883    -0.18700
C2680       C  0.00061640  0.68186324  0.53634960    -0.18700
H2681       H  0.98195101  0.86072482  0.51787268     0.14200
H2682       H  0.98272642  0.85937148  0.47899386     0.14200
H2683       H  0.97357875  0.62264449  0.52059818     0.14200
H2684       H  0.97327285  0.62136761  0.48181779     0.14200
H2685       H  0.02170377  0.77407276  0.57273086     0.12500
H2686       H  0.02026872  0.70946867  0.57339593     0.12500
H2687       H  0.02550068  0.76803305  0.42710231     0.12500
H2688       H  0.02196574  0.70372138  0.42776788     0.12500
H2689       H  0.01757388  0.76746578  0.49971364     0.25800
H2690       H  0.01545461  0.71110747  0.50037230     0.25800
N2691       N  0.69708927  0.98958129  0.50054782    -0.37000
N2692       N  0.74822503  0.98946766  0.52996615    -0.57600
N2693       N  0.79785472  0.99411742  0.49944361    -0.37000
N2694       N  0.74670630  0.99172845  0.47001855    -0.57600
C2695       C  0.67962413  0.98086833  0.51651399     0.26600
C2696       C  0.67875037  0.98244402  0.48452994     0.26600
C2697       C  0.81673025  0.98652861  0.51515155     0.26600
C2698       C  0.81579055  0.98734895  0.48323853     0.26600
C2699       C  0.72190241  0.99332098  0.54180509     0.35200
C2700       C  0.77491867  0.99593569  0.54111425     0.35200
C2701       C  0.71951590  0.99791764  0.45920447     0.35200
C2702       C  0.77256335  0.99902084  0.45851392     0.35200
C2703       C  0.64955986  0.96839150  0.51058730    -0.22300
C2704       C  0.64909925  0.96917963  0.49034599    -0.22300
C2705       C  0.84721431  0.97527429  0.50890469    -0.22300
C2706       C  0.84661583  0.97580186  0.48869943    -0.22300
C2707       C  0.73195898  0.00198456  0.56060846    -0.23300
C2708       C  0.76555953  0.00383856  0.56013577    -0.23300
C2709       C  0.72815613  0.00936561  0.44078264    -0.23300
C2710       C  0.76184597  0.00991534  0.44032365    -0.23300
C2711       C  0.68917674  0.98668519  0.53619623    -0.18700
C2712       C  0.68727920  0.98997435  0.46497384    -0.18700
C2713       C  0.80565213  0.99339097  0.46374454    -0.18700
C2714       C  0.80768715  0.99128080  0.53493659    -0.18700
H2715       H  0.62979752  0.96006169  0.51984699     0.14200
H2716       H  0.62893696  0.96156511  0.48100649     0.14200
H2717       H  0.86784021  0.96774170  0.51795962     0.14200
H2718       H  0.86668126  0.96879962  0.47913037     0.14200
H2719       H  0.71679951  0.00597920  0.57343688     0.12500
H2720       H  0.78135678  0.00954232  0.57250712     0.12500
H2721       H  0.71188794  0.01592322  0.42877420     0.12500
H2722       H  0.77675528  0.01706689  0.42795501     0.12500
H2723       H  0.71836171  0.00346806  0.50061947     0.25800
H2724       H  0.77551454  0.00664236  0.49984555     0.25800
C2725       C  0.49933552  0.71028571  0.26622578     0.86100
C2726       C  0.53099573  0.71288347  0.25437639    -0.54200
C2727       C  0.53247452  0.73844413  0.24140665     0.09000
C2728       C  0.50128317  0.76058835  0.24260337     0.20000
C2729       C  0.99622616  0.74323127  0.27618312    -0.54900
C2730       C  0.49809413  0.76974551  0.26460713     0.09100
C2731       C  0.97115358  0.71200228  0.24994152    -0.54400
C2732       C  0.97203686  0.73854554  0.23777353     0.09700
H2733       H  0.55103226  0.69569948  0.25681921     0.14200
H2734       H  0.50141908  0.78128753  0.23247526    -0.00100
H2735       H  0.99380772  0.74652246  0.29188367     0.14500
H2736       H  0.95148692  0.69420115  0.24948694     0.14300
C2737       C  0.99300371  0.86320918  0.29312964    -0.06500
C2738       C  0.96543418  0.84272072  0.29312341    -0.17700
C2739       C  0.96539221  0.81305471  0.28279703     0.10700
C2740       C  0.99372484  0.80320433  0.27227640    -0.06500
C2741       C  0.52141085  0.82415655  0.27185540    -0.17700
C2742       C  0.52085648  0.85447307  0.28146733     0.10700
S2743       S  0.92887902  0.78838351  0.28451012    -0.32700
S2744       S  0.55612660  0.88029068  0.27857531    -0.32700
H2745       H  0.53821813  0.90989636  0.27910045     0.31500
H2746       H  0.93320831  0.77086424  0.26692590     0.28700
H2747       H  0.94405852  0.84907968  0.30178699     0.19300
H2748       H  0.54371303  0.81619194  0.26467191     0.19300
C2749       C  0.99853765  0.62018574  0.29988277    -0.06500
C2750       C  0.50371737  0.61906197  0.28068914    -0.17700
C2751       C  0.50219153  0.64745071  0.26919712     0.10700
C2752       C  0.99744572  0.67849777  0.27738205    -0.06500
C2753       C  0.99225705  0.67915232  0.29790468    -0.17700
C2754       C  0.99297771  0.65058775  0.30913515     0.10700
S2755       S  0.50474463  0.64289736  0.24272384    -0.32700
S2756       S  0.98661674  0.65464301  0.33528198    -0.32700
H2757       H  0.00921111  0.63013210  0.34079305     0.28700
H2758       H  0.50443039  0.60849072  0.24199175     0.28700
H2759       H  0.50690420  0.59533464  0.27375680     0.19300
H2760       H  0.98761828  0.70163610  0.30571886     0.19300
C2761       C  0.99892861  0.60603213  0.41956294    -0.06500
C2762       C  0.53415881  0.61760500  0.42795563    -0.17700
C2763       C  0.53542226  0.64094810  0.44304233     0.10700
C2764       C  0.00047241  0.65302586  0.45014935    -0.06500
C2765       C  0.97049520  0.64331408  0.44196121    -0.17700
C2766       C  0.96926319  0.61951191  0.42715786     0.10700
S2767       S  0.57548391  0.65362030  0.45150349    -0.32700
S2768       S  0.92898772  0.60727315  0.41917591    -0.32700
H2769       H  0.93623612  0.57395817  0.42214015     0.28700
H2770       H  0.56609412  0.66355779  0.47047133     0.28700
H2771       H  0.55711919  0.60876957  0.42190833     0.19300
H2772       H  0.94783918  0.65422584  0.44730719     0.19300
C2773       C  0.00360369  0.82197653  0.44726034    -0.06500
C2774       C  0.97817554  0.81906166  0.43338612    -0.17700
C2775       C  0.97701730  0.83873067  0.41667753     0.10700
C2776       C  0.00045693  0.86370812  0.41430825    -0.06500
C2777       C  0.52445925  0.86596429  0.42794441    -0.17700
C2778       C  0.52757943  0.84551732  0.44437367     0.10700
S2779       S  0.94694585  0.82849249  0.39815753    -0.32700
S2780       S  0.56442874  0.84895701  0.45905825    -0.32700
H2781       H  0.56563794  0.81631811  0.46544722     0.28700
H2782       H  0.96790630  0.83440900  0.38218472     0.28700
H2783       H  0.95997874  0.80007569  0.43512069     0.19300
H2784       H  0.54368001  0.88344548  0.42498553     0.19300
C2785       C  0.61800955  0.98283204  0.41742451    -0.06500
C2786       C  0.61419911  0.50879988  0.43144500    -0.17700
C2787       C  0.63534970  0.51300011  0.44748213     0.10700
C2788       C  0.66194219  0.98746486  0.44934645    -0.06500
C2789       C  0.66598381  0.96295571  0.43504804    -0.17700
C2790       C  0.64503438  0.96105755  0.41882872     0.10700
S2791       S  0.62924889  0.54880194  0.46273021    -0.32700
S2792       S  0.65622669  0.93257989  0.39963715    -0.32700
H2793       H  0.64881572  0.95425217  0.38418568     0.28700
H2794       H  0.66212506  0.55241596  0.46866494     0.28700
H2795       H  0.59493023  0.52679830  0.42890356     0.19300
H2796       H  0.68672398  0.94620255  0.43605283     0.19300
C2797       C  0.87762438  0.98936048  0.41752653    -0.06500
C2798       C  0.87732727  0.51635693  0.43110165    -0.17700
C2799       C  0.85456760  0.51903281  0.44636365     0.10700
C2800       C  0.83069525  0.99275356  0.44797013    -0.06500
C2801       C  0.83127149  0.96609182  0.43492656    -0.17700
C2802       C  0.85413103  0.96425178  0.41964877     0.10700
S2803       S  0.85936027  0.55252539  0.46351324    -0.32700
S2804       S  0.85080492  0.93003284  0.40300542    -0.32700
H2805       H  0.85153402  0.94963786  0.38606127     0.28700
H2806       H  0.82577843  0.55653679  0.46771328     0.28700
H2807       H  0.89697173  0.53396338  0.43037706     0.19300
H2808       H  0.81334718  0.94681290  0.43649627     0.19300
C2809       C  0.62063806  0.98530596  0.58425830    -0.06500
C2810       C  0.62957431  0.51828535  0.57681878    -0.17700
C2811       C  0.65104837  0.51981631  0.56095784     0.10700
C2812       C  0.66369191  0.98659873  0.55171862    -0.06500
C2813       C  0.65360431  0.95670027  0.55958516    -0.17700
C2814       C  0.63182274  0.95558956  0.57555112     0.10700
S2815       S  0.66059586  0.55989135  0.55155186    -0.32700
S2816       S  0.61929290  0.91601160  0.58444177    -0.32700
H2817       H  0.63173299  0.89730925  0.56868601     0.28700
H2818       H  0.66882794  0.55022959  0.53235871     0.28700
H2819       H  0.61987752  0.54113080  0.58244830     0.19300
H2820       H  0.66330130  0.93421944  0.55331776     0.19300
C2821       C  0.87871551  0.98231870  0.58138788    -0.06500
C2822       C  0.88090959  0.50969625  0.56850630    -0.17700
C2823       C  0.85833447  0.51342526  0.55313737     0.10700
C2824       C  0.83339214  0.98852965  0.55027211    -0.06500
C2825       C  0.83251740  0.96135513  0.56270723    -0.17700
C2826       C  0.85428414  0.95831434  0.57846724     0.10700
S2827       S  0.86052516  0.55015151  0.53857614    -0.32700
S2828       S  0.84721228  0.92487442  0.59502010    -0.32700
H2829       H  0.84952840  0.94444452  0.61203844     0.28700
H2830       H  0.82668597  0.55288574  0.53463452     0.28700
H2831       H  0.89908887  0.52855917  0.57091027     0.19300
H2832       H  0.81366695  0.94305927  0.56058534     0.19300
C2833       C  0.99694163  0.60679338  0.58058355    -0.06500
C2834       C  0.97113785  0.62968184  0.57877621    -0.17700
C2835       C  0.97189628  0.65437790  0.56454659     0.10700
C2836       C  0.99906625  0.65643917  0.55188528    -0.06500
C2837       C  0.02461981  0.63333951  0.55338577    -0.17700
C2838       C  0.02369444  0.60836418  0.56739703     0.10700
S2839       S  0.93799088  0.68298523  0.56238745    -0.32700
S2840       S  0.05666130  0.57860168  0.56704406    -0.32700
H2841       H  0.03677976  0.55171731  0.57163371     0.28700
H2842       H  0.91923012  0.67058446  0.57793922     0.28700
H2843       H  0.95056063  0.62858735  0.58875462     0.19300
H2844       H  0.04515779  0.63450624  0.54333099     0.19300
C2845       C  0.00014543  0.86860185  0.58339376    -0.06500
C2846       C  0.52760417  0.86506808  0.57329315    -0.17700
C2847       C  0.52847035  0.84449430  0.55682222     0.10700
C2848       C  0.00270809  0.82622947  0.55035425    -0.06500
C2849       C  0.97296166  0.83206994  0.56007544    -0.17700
C2850       C  0.97114440  0.85318969  0.57639396     0.10700
S2851       S  0.56625523  0.84282478  0.54300938    -0.32700
S2852       S  0.93178539  0.85860345  0.58827365    -0.32700
H2853       H  0.91258505  0.84283472  0.57388783     0.28700
H2854       H  0.56277339  0.81124617  0.53510126     0.28700
H2855       H  0.54929993  0.87910348  0.57680211     0.19300
H2856       H  0.95130310  0.81912012  0.55514818     0.19300
C2857       C  0.61966762  0.74367000  0.20411834    -0.06500
C2858       C  0.60135178  0.77223143  0.20794296    -0.17700
C2859       C  0.57322947  0.77219672  0.21993470     0.10700
C2860       C  0.56172269  0.74211306  0.22780949    -0.06500
C2861       C  0.58002033  0.71350427  0.22328723    -0.17700
C2862       C  0.60954479  0.71426286  0.21298252     0.10700
S2863       S  0.55452928  0.81142747  0.22520985    -0.32700
S2864       S  0.63400632  0.67726396  0.21364901    -0.32700
H2865       H  0.66401205  0.69373409  0.21604173     0.28700
H2866       H  0.57191673  0.83029816  0.21157454     0.28700
H2867       H  0.60945758  0.79502468  0.20164372     0.19300
H2868       H  0.57203059  0.68978848  0.22823684     0.19300
C2869       C  0.88637295  0.75061156  0.20019009    -0.06500
C2870       C  0.90110404  0.77834289  0.20857375    -0.17700
C2871       C  0.92966496  0.77600441  0.22024677     0.10700
C2872       C  0.94489597  0.74493871  0.22318932    -0.06500
C2873       C  0.93132819  0.71765492  0.21361094    -0.17700
C2874       C  0.90209495  0.71977747  0.20285940     0.10700
S2875       S  0.94427305  0.81293889  0.23194619    -0.32700
S2876       S  0.88587183  0.68149994  0.19401730    -0.32700
H2877       H  0.85594170  0.68573568  0.20405422     0.28700
H2878       H  0.91881543  0.83414306  0.22590001     0.28700
H2879       H  0.88962181  0.80201299  0.20649151     0.19300
H2880       H  0.94283097  0.69379845  0.21529982     0.19300
C2881       C  0.75568276  0.63569777  0.08249052    -0.06500
C2882       C  0.72870259  0.63525529  0.06956208    -0.17700
C2883       C  0.72646902  0.61208807  0.05446222     0.10700
C2884       C  0.75209625  0.58901263  0.05198276    -0.06500
C2885       C  0.77920717  0.58947151  0.06470134    -0.17700
C2886       C  0.78104990  0.61202628  0.08013108     0.10700
S2887       S  0.69038645  0.61341398  0.03893949    -0.32700
S2888       S  0.81503124  0.60710909  0.09693583    -0.32700
H2889       H  0.79568773  0.61141735  0.11385790     0.28700
H2890       H  0.69033620  0.58016179  0.03359943     0.28700
H2891       H  0.70904745  0.65305487  0.07129217     0.19300
H2892       H  0.79860309  0.57134859  0.06292818     0.19300
C2893       C  0.74552187  0.87766515  0.08507854    -0.06500
C2894       C  0.77070650  0.90081599  0.08353383    -0.17700
C2895       C  0.77238178  0.92223607  0.06751475     0.10700
C2896       C  0.74765455  0.92162392  0.05281879    -0.06500
C2897       C  0.72326866  0.89760432  0.05386918    -0.17700
C2898       C  0.72247359  0.87513681  0.06943666     0.10700
S2899       S  0.80662094  0.94996070  0.06674681    -0.32700
S2900       S  0.69275847  0.84276721  0.06766739    -0.32700
H2901       H  0.71371049  0.81857742  0.07559350     0.28700
H2902       H  0.80800946  0.95209768  0.04614498     0.28700
H2903       H  0.78915047  0.90251813  0.09502449     0.19300
H2904       H  0.70479322  0.89623735  0.04237831     0.19300
C2905       C  0.75550400  0.64023126  0.92131812    -0.06500
C2906       C  0.77938674  0.61518464  0.92108590    -0.17700
C2907       C  0.77970803  0.59040137  0.93529173     0.10700
C2908       C  0.75515259  0.59005501  0.94994839    -0.06500
C2909       C  0.73158110  0.61534370  0.95031990    -0.17700
C2910       C  0.73182140  0.64057326  0.93645065     0.10700
S2911       S  0.81207084  0.56003719  0.93386589    -0.32700
S2912       S  0.70208448  0.67314857  0.93939700    -0.32700
H2913       H  0.72287713  0.69820599  0.93294046     0.28700
H2914       H  0.81374308  0.55359030  0.95412079     0.28700
H2915       H  0.79782448  0.61470003  0.90964649     0.19300
H2916       H  0.71305115  0.61562547  0.96171526     0.19300
C2917       C  0.74758777  0.92275077  0.94917293    -0.06500
C2918       C  0.77417705  0.92224288  0.93613456    -0.17700
C2919       C  0.77381106  0.90280135  0.91916226     0.10700
C2920       C  0.74679196  0.88200978  0.91537967    -0.06500
C2921       C  0.72075632  0.88164466  0.92891355    -0.17700
C2922       C  0.72061383  0.90202692  0.94554188     0.10700
S2923       S  0.80751586  0.90771511  0.90238314    -0.32700
S2924       S  0.68500460  0.90074817  0.96124086    -0.32700
H2925       H  0.68640726  0.93323551  0.96801715     0.28700
H2926       H  0.78712209  0.91057039  0.88570207     0.28700
H2927       H  0.79467682  0.93851157  0.93870938     0.19300
H2928       H  0.70001801  0.86568821  0.92644023     0.19300
C2929       C  0.99512723  0.67891364  0.72527178    -0.06500
C2930       C  0.51563462  0.64987075  0.72913044    -0.17700
C2931       C  0.51472607  0.62194839  0.71722984     0.10700
C2932       C  0.99305311  0.62113564  0.70154341    -0.06500
C2933       C  0.96846425  0.64518309  0.69998704    -0.17700
C2934       C  0.96932763  0.67399472  0.71135531     0.10700
S2935       S  0.54311120  0.58858104  0.72209312    -0.32700
S2936       S  0.93715976  0.70418027  0.70753707    -0.32700
H2937       H  0.92272107  0.68977016  0.69082415     0.28700
H2938       H  0.56577701  0.60681431  0.73323439     0.28700
H2939       H  0.53290783  0.64930796  0.74104687     0.19300
H2940       H  0.94883676  0.64173335  0.68941895     0.19300
C2941       C  0.99987868  0.86214037  0.70645846    -0.06500
C2942       C  0.53042041  0.83727703  0.70483093    -0.17700
C2943       C  0.53146384  0.80792346  0.71538406     0.10700
C2944       C  0.00093481  0.80282239  0.72816612    -0.06500
C2945       C  0.97380249  0.82422749  0.72915371    -0.17700
C2946       C  0.97284958  0.85354123  0.71839773     0.10700
S2947       S  0.56641701  0.78120341  0.71149496    -0.32700
S2948       S  0.93634467  0.87860981  0.72050776    -0.32700
H2949       H  0.95305308  0.90858868  0.72005548     0.28700
H2950       H  0.56627693  0.76710378  0.73029744     0.28700
H2951       H  0.54993800  0.84207282  0.69449940     0.19300
H2952       H  0.95283626  0.81777570  0.73802317     0.19300
C2953       C  0.61277996  0.74630260  0.80116698    -0.06500
C2954       C  0.59128852  0.72004019  0.80396728    -0.17700
C2955       C  0.56167210  0.71776983  0.79354942     0.10700
C2956       C  0.55309671  0.74208470  0.77963056    -0.06500
C2957       C  0.57400705  0.76883939  0.77717874    -0.17700
C2958       C  0.60387699  0.77095290  0.78751184     0.10700
S2959       S  0.53592080  0.68311840  0.79879238    -0.32700
S2960       S  0.63051739  0.80443933  0.78150177    -0.32700
H2961       H  0.65971605  0.78579621  0.78241682     0.28700
H2962       H  0.50608224  0.69818405  0.79339849     0.28700
H2963       H  0.59725268  0.70122728  0.81459222     0.19300
H2964       H  0.56805015  0.78717127  0.76623447     0.19300
C2965       C  0.93535861  0.75126613  0.77398149    -0.06500
C2966       C  0.93849010  0.74810698  0.79443974    -0.17700
C2967       C  0.91103445  0.75074349  0.80678711     0.10700
C2968       C  0.87961930  0.75669708  0.79855858    -0.06500
C2969       C  0.87670012  0.76139823  0.77825319    -0.17700
C2970       C  0.90401808  0.75857908  0.76585720     0.10700
S2971       S  0.91758458  0.74575845  0.83284158    -0.32700
S2972       S  0.89645208  0.76400922  0.73988893    -0.32700
H2973       H  0.92903617  0.76602799  0.73361400     0.28700
H2974       H  0.89253033  0.76746737  0.83881646     0.28700
H2975       H  0.96234001  0.74260355  0.80080640     0.19300
H2976       H  0.85270355  0.76643024  0.77191484     0.19300
C2977       C  0.85994377  0.99399042  0.69921315    -0.06500
C2978       C  0.84796513  0.96578830  0.70853227    -0.17700
C2979       C  0.82079626  0.96709868  0.72130831     0.10700
C2980       C  0.80497116  0.99741070  0.72498917    -0.06500
C2981       C  0.81694903  0.52547811  0.71423413    -0.17700
C2982       C  0.84534001  0.52426432  0.70283372     0.10700
S2983       S  0.80777713  0.93009692  0.73315157    -0.32700
S2984       S  0.85895069  0.56286277  0.69322391    -0.32700
H2985       H  0.88964300  0.56069380  0.70278784     0.28700
H2986       H  0.83186665  0.90902944  0.72523572     0.28700
H2987       H  0.86033905  0.94261446  0.70617742     0.19300
H2988       H  0.80452031  0.54887995  0.71601060     0.19300
C2989       C  0.69296369  0.00294153  0.72523502    -0.06500
C2990       C  0.67389796  0.97459801  0.72669579    -0.17700
C2991       C  0.64465352  0.97114406  0.71587579     0.10700
C2992       C  0.63458403  0.99616842  0.70276971    -0.06500
C2993       C  0.65151063  0.52503525  0.70109952    -0.17700
C2994       C  0.68132757  0.52800920  0.71123908     0.10700
S2995       S  0.62046967  0.93523502  0.72041737    -0.32700
S2996       S  0.70572818  0.56365919  0.70620004    -0.32700
H2997       H  0.73628820  0.54840946  0.70976423     0.28700
H2998       H  0.59008962  0.95192514  0.72023898     0.28700
H2999       H  0.68090547  0.95574392  0.73707000     0.19300
H3000       H  0.64439513  0.54434103  0.69106604     0.19300
C3001       C  0.75031549  0.62532310  0.80105804    -0.06500
C3002       C  0.72504385  0.60239856  0.80277283    -0.17700
C3003       C  0.72401095  0.57424892  0.79083458     0.10700
C3004       C  0.74964894  0.56797008  0.77711320    -0.06500
C3005       C  0.77372744  0.59235665  0.77481076    -0.17700
C3006       C  0.77403959  0.62076059  0.78626877     0.10700
S3007       S  0.68939063  0.54703955  0.79331505    -0.32700
S3008       S  0.80415013  0.65117438  0.78009957    -0.32700
H3009       H  0.78300843  0.67808344  0.78332120     0.28700
H3010       H  0.67063773  0.56684505  0.80606525     0.28700
H3011       H  0.70624147  0.60632048  0.81375803     0.19300
H3012       H  0.79195586  0.59092155  0.76346922     0.19300
C3013       C  0.74322296  0.94481061  0.77512571    -0.06500
C3014       C  0.77218200  0.92671420  0.77770673    -0.17700
C3015       C  0.77204029  0.89582838  0.78638455     0.10700
C3016       C  0.74242622  0.88339813  0.79417987    -0.06500
C3017       C  0.71329697  0.90170227  0.79156390    -0.17700
C3018       C  0.71329471  0.93218930  0.78220746     0.10700
S3019       S  0.81058223  0.87371626  0.78665099    -0.32700
S3020       S  0.67431947  0.95366428  0.78080481    -0.32700
H3021       H  0.68449423  0.98224235  0.77148370     0.28700
H3022       H  0.79635660  0.84325363  0.78224156     0.28700
H3023       H  0.79531431  0.93689607  0.77303096     0.19300
H3024       H  0.69033420  0.89288480  0.79737474     0.19300
C3025       C  0.63269020  0.76337487  0.08136658    -0.06500
C3026       C  0.61122651  0.79051009  0.08106600    -0.17700
C3027       C  0.58772777  0.79426804  0.06621694     0.10700
C3028       C  0.58471151  0.76977048  0.05167249    -0.06500
C3029       C  0.60681901  0.74333246  0.05146884    -0.17700
C3030       C  0.63135413  0.74035762  0.06575340     0.10700
S3031       S  0.56211248  0.83052987  0.06678826    -0.32700
S3032       S  0.66100019  0.70787503  0.06227491    -0.32700
H3033       H  0.68792157  0.72633677  0.06891697     0.28700
H3034       H  0.55637937  0.83208232  0.04642115     0.28700
H3035       H  0.61245154  0.80884527  0.09260126     0.19300
H3036       H  0.60514562  0.72507706  0.03989355     0.19300
C3037       C  0.86675230  0.76910938  0.08329977    -0.06500
C3038       C  0.88601189  0.79715664  0.08074834    -0.17700
C3039       C  0.90887751  0.79916079  0.06554546     0.10700
C3040       C  0.91289784  0.77233384  0.05261535    -0.06500
C3041       C  0.89313966  0.74471088  0.05470990    -0.17700
C3042       C  0.86995760  0.74279394  0.06980359     0.10700
S3043       S  0.93228905  0.83642250  0.06380352    -0.32700
S3044       S  0.84385430  0.70726930  0.07086824    -0.32700
H3045       H  0.86133134  0.68789292  0.05726079     0.28700
H3046       H  0.94398424  0.83228173  0.04457453     0.28700
H3047       H  0.88376906  0.81757865  0.09086880     0.19300
H3048       H  0.89608333  0.72456527  0.04444513     0.19300
C3049       C  0.62837736  0.76399228  0.91904008    -0.06500
C3050       C  0.62840999  0.73931475  0.93334929    -0.17700
C3051       C  0.60578133  0.73962731  0.94871883     0.10700
C3052       C  0.58284131  0.76559857  0.95012087    -0.06500
C3053       C  0.58342316  0.79088009  0.93631432    -0.17700
C3054       C  0.60553097  0.79021978  0.92069166     0.10700
S3055       S  0.60738369  0.70610417  0.96589501    -0.32700
S3056       S  0.60174526  0.82265612  0.90296984    -0.32700
H3057       H  0.60030226  0.80110050  0.88679233     0.28700
H3058       H  0.57372482  0.70608246  0.97040132     0.28700
H3059       H  0.64594644  0.71932255  0.93247426     0.19300
H3060       H  0.56576234  0.81081588  0.93742398     0.19300
C3061       C  0.91108128  0.77153485  0.95038580    -0.06500
C3062       C  0.91409998  0.79496542  0.93552053    -0.17700
C3063       C  0.89387989  0.79433225  0.91892507     0.10700
C3064       C  0.86841734  0.77111121  0.91766774    -0.06500
C3065       C  0.86432806  0.74864955  0.93298273    -0.17700
C3066       C  0.88563985  0.74825310  0.94917319     0.10700
S3067       S  0.90427233  0.82150172  0.89914536    -0.32700
S3068       S  0.87953902  0.71693461  0.96737747    -0.32700
H3069       H  0.91289422  0.71254666  0.97219407     0.28700
H3070       H  0.89915165  0.79810964  0.88420908     0.28700
H3071       H  0.93383116  0.81259582  0.93629258     0.19300
H3072       H  0.84479486  0.73081231  0.93212609     0.19300
C3073       C  0.86484699  0.99621453  0.30040531    -0.06500
C3074       C  0.84315411  0.52181001  0.30133832    -0.17700
C3075       C  0.81408929  0.52500601  0.29057618     0.10700
C3076       C  0.80648819  0.00149452  0.27775352    -0.06500
C3077       C  0.82667304  0.97362365  0.27622053    -0.17700
C3078       C  0.85579368  0.97076883  0.28728109     0.10700
S3079       S  0.78848832  0.55996706  0.29594743    -0.32700
S3080       S  0.88116287  0.93507652  0.28302464    -0.32700
H3081       H  0.91104241  0.95214111  0.28342310     0.28700
H3082       H  0.75903558  0.54338651  0.29231192     0.28700
H3083       H  0.84905274  0.54067049  0.31198654     0.19300
H3084       H  0.82071994  0.95480782  0.26557919     0.19300
C3085       C  0.69147749  0.00357492  0.27663957    -0.06500
C3086       C  0.67731403  0.97236853  0.27676795    -0.17700
C3087       C  0.64892468  0.96563110  0.28777940     0.10700
C3088       C  0.63469272  0.99051078  0.29973939    -0.06500
C3089       C  0.64751822  0.52147709  0.29886497    -0.17700
C3090       C  0.67559707  0.52836935  0.28780232     0.10700
S3091       S  0.63086658  0.92567995  0.28526709    -0.32700
S3092       S  0.69343666  0.56865832  0.28971643    -0.32700
H3093       H  0.66920232  0.58306277  0.30171311     0.28700
H3094       H  0.65059388  0.91416501  0.26973333     0.28700
H3095       H  0.68798390  0.95338262  0.26759906     0.19300
H3096       H  0.63712315  0.54076039  0.30789729     0.19300
C3097       C  0.74937688  0.56661031  0.22298151    -0.06500
C3098       C  0.74445596  0.56431739  0.20241034    -0.17700
C3099       C  0.74621943  0.59167487  0.19018543     0.10700
C3100       C  0.75246698  0.62264804  0.19841043    -0.06500
C3101       C  0.75633133  0.62571634  0.21871935    -0.17700
C3102       C  0.75431589  0.59843125  0.23111265     0.10700
S3103       S  0.73994884  0.58538190  0.16415092    -0.32700
S3104       S  0.75668063  0.60549285  0.25730850    -0.32700
H3105       H  0.76777501  0.63797929  0.25662231     0.28700
H3106       H  0.76144981  0.60994816  0.15792018     0.28700
H3107       H  0.73858771  0.54153693  0.19531849     0.19300
H3108       H  0.76000729  0.64988588  0.22491522     0.19300
C3109       C  0.74324883  0.94169807  0.23117543    -0.06500
C3110       C  0.76840825  0.91836362  0.23361262    -0.17700
C3111       C  0.76799333  0.88847130  0.22327688     0.10700
C3112       C  0.74210297  0.88177050  0.20990848    -0.06500
C3113       C  0.71596692  0.90432255  0.20848516    -0.17700
C3114       C  0.71616243  0.93390680  0.21894487     0.10700
S3115       S  0.80131574  0.86004537  0.22766800    -0.32700
S3116       S  0.68158822  0.96123083  0.21528796    -0.32700
H3117       H  0.68358059  0.97681906  0.23364694     0.28700
H3118       H  0.78225017  0.83174279  0.22518194     0.28700
H3119       H  0.78914886  0.92392114  0.24301373     0.19300
H3120       H  0.69568997  0.89961408  0.19853720     0.19300
loop_ 
_geom_bond_atom_site_label_1 
_geom_bond_atom_site_label_2 
_geom_bond_distance 
_geom_bond_site_symmetry_2 
_ccdc_geom_bond_type 
C1            C2   1.537       .  S
C1            C7   1.537       .  S
C1            C5   1.546       .  S
C1          C757   1.546       .  S
C2            H9   1.086       .  S
C2          C783   1.366       .  D
C3            C4   1.542       .  S
C3          C782   1.365       .  D
C3          C736   1.486       .  S
C4            C8   1.547       .  S
C4            C6   1.541       .  S
C4           H10   1.111       .  S
C5          H791   1.080       .  S
C5          C786   1.364   1_545  D
C6          C785   1.364       .  D
C6          C769   1.487       .  S
C7           H12   1.086       .  S
C7          C788   1.369       .  D
C8          C787   1.370       .  D
C8          C745   1.497       .  S
H11         C785   1.080       .  S
N13          C18   1.351       .  A
N13          C17   1.353   1_554  A
N13          H45   1.040       .  S
N14          C22   1.350   1_655  A
N14        C1581   1.349       .  A
N15          C20   1.350       .  A
N15          C19   1.351   1_554  A
N15          H46   1.039       .  S
N16          C24   1.351   1_655  A
N16        C1583   1.350       .  A
C17          C25   1.387       .  A
C17          C33   1.416       .  A
C18          C34   1.414       .  A
C18          C26   1.387       .  A
C19          C27   1.386       .  A
C19          C36   1.410       .  A
C20          C35   1.412       .  A
C20          C28   1.387       .  A
C21        N1574   1.351       .  A
C21          C33   1.415       .  A
C21          C29   1.387       .  A
C22          C36   1.409       .  A
C22          C30   1.386       .  A
C23        N1576   1.350       .  A
C23          C31   1.387       .  A
C23          C34   1.413       .  A
C24          C32   1.386       .  A
C24          C35   1.413       .  A
C25          C26   1.377   1_556  A
C25          H37   1.082       .  S
C26          H38   1.082       .  S
C27          C28   1.377   1_556  A
C27          H39   1.082       .  S
C28          H40   1.082       .  S
C29        C1590   1.372       .  A
C29          H41   1.082       .  S
C30        C1589   1.370   1_455  A
C30          H42   1.082       .  S
C31        C1592   1.371       .  A
C31          H43   1.082       .  S
C32        C1591   1.374   1_455  A
C32          H44   1.082       .  S
C33         C721   1.489       .  S
C34         C700   1.482       .  S
C35         C688   1.485       .  S
C36         C712   1.482       .  S
C47          C48   1.534       .  S
C47          C53   1.532       .  S
C47          C51   1.543       .  S
C47         C664   1.542       .  S
C48         H835   1.086       .  S
C48         C829   1.365   1_545  D
C49          C50   1.547       .  S
C49         C828   1.364       .  D
C49         C673   1.476       .  S
C50          C54   1.541       .  S
C50          C52   1.546       .  S
C50          H56   1.108       .  S
C51          H57   1.081       .  S
C51         C832   1.369       .  D
C52         C831   1.370       .  D
C52         C640   1.504       .  S
C53          H58   1.086       .  S
C53         C834   1.365       .  D
C54         C833   1.365       .  D
C54         C649   1.489       .  S
H55         C828   1.086       .  S
C59          C60   1.546   1_655  S
C59          C65   1.537   1_655  S
C59        C1623   1.538       .  S
C59        C2149   1.546       .  S
C60          H67   1.080       .  S
C60          C61   1.366       .  D
C61          C62   1.541   1_455  S
C61         C616   1.488       .  S
C62          C66   1.541   1_655  S
C62        C1624   1.543       .  S
C62          H68   1.111       .  S
C63        C1619   1.536       .  S
C63          H69   1.086       .  S
C63          C64   1.365       .  D
C64        C1622   1.544       .  S
C64         C625   1.487       .  S
C65          H70   1.086       .  S
C65          C66   1.366       .  D
C66        C2164   1.482       .  S
N71          C76   1.352   1_554  A
N71          C75   1.357       .  A
N71         H103   1.036       .  S
N72          C80   1.351       .  A
N72         C859   1.353   1_545  A
N73          C78   1.354   1_554  A
N73          C77   1.350       .  A
N73         H104   1.040       .  S
N74          C82   1.354       .  A
N74         C861   1.350   1_545  A
C75          C83   1.386       .  A
C75          C91   1.420       .  A
C76          C92   1.417       .  A
C76          C84   1.387       .  A
C77          C85   1.388       .  A
C77          C94   1.414       .  A
C78          C93   1.414       .  A
C78          C86   1.386       .  A
C79         N852   1.353       .  A
C79          C91   1.415       .  A
C79          C87   1.385       .  A
C80          C94   1.414       .  A
C80          C88   1.387       .  A
C81         N854   1.350       .  A
C81          C89   1.389       .  A
C81          C92   1.416       .  A
C82          C90   1.384       .  A
C82          C93   1.413       .  A
C83          C84   1.379   1_554  A
C83          H95   1.082       .  S
C84          H96   1.082       .  S
C85          C86   1.377   1_554  A
C85          H97   1.082       .  S
C86          H98   1.082       .  S
C87         C868   1.372       .  A
C87          H99   1.082       .  S
C88         C867   1.372   1_545  A
C88         H100   1.082       .  S
C89         C870   1.371       .  A
C89         H101   1.082       .  S
C90         C869   1.372   1_545  A
C90         H102   1.082       .  S
C91         C556   1.500       .  S
C92         C577   1.481       .  S
C93         C568   1.494       .  S
C94         C544   1.483       .  S
C105        N123   1.352       .  A
C105        C142   1.460       .  S
C105        C724   1.480       .  S
N106        N123   1.325       .  A
N106        N128   1.319       .  A
N106       Co143   2.085       .  S
C107        N132   1.341       .  A
C107        H152   1.081       .  S
C107        C145   1.467       .  S
H108        C149   1.081       .  S
C109        N133   1.340       .  A
C109        H138   1.081       .  S
C109        C113   1.463       .  S
Co110       N128   2.081       .  S
Co110       N118   2.080       .  S
Co110       N150   2.090       .  S
Co110       N126   2.088       .  S
Co110      Cl154   2.447       .  S
N111        C149   1.338       .  A
N111        N118   1.318       .  A
N111       Co112   2.075       .  S
Co112       N115   2.080       .  S
Co112       N132   2.082       .  S
Co112       N119   2.081       .  S
Co112      Cl154   2.456       .  S
C113        N151   1.349       .  A
C113        C709   1.483       .  S
N114        N121   1.320       .  A
N114        N144   1.327       .  A
N114       Co147   2.094       .  S
N115        N133   1.319       .  A
N115        N151   1.324       .  A
N116        C145   1.352       .  A
N116        N126   1.323       .  A
H117        C142   1.081       .  S
N118        N139   1.323       .  A
N119        N137   1.320       .  A
N119        N124   1.325       .  A
C120        N124   1.351       .  A
C120        C148   1.467       .  S
C120        C613   1.488       .  S
N121        C136   1.342       .  A
N121       Co143   2.090       .  S
C122        N150   1.343       .  A
C122        H156   1.082       .  S
C122        C125   1.459       .  S
C125        N146   1.352       .  A
C125        C628   1.479       .  S
N126        N132   1.318       .  A
N127        C153   1.339       .  A
N127        N129   1.321       .  A
N127       Co143   2.089       .  S
N128        C142   1.339       .  A
N129        N157   1.325       .  A
N129       Co147   2.085       .  S
H130        C153   1.081       .  S
H131        C148   1.081       .  S
N133       Co147   2.085       .  S
N134        N146   1.327       .  A
N134        N150   1.322       .  A
N134       Co143   2.099       .  S
C135        N139   1.350       .  A
C135        C149   1.461       .  S
C135        C580   1.482       .  S
C136        H140   1.081       .  S
C136        C155   1.463       .  S
N137        C148   1.340       .  A
N137       Co147   2.095       .  S
C141        N157   1.351       .  A
C141        C153   1.463       .  S
C141        C661   1.482       .  S
Co143      Cl154   2.456       .  S
N144        C155   1.353       .  A
C145        C676   1.491       .  S
Co147      Cl154   2.451       .  S
C155        C565   1.489       .  S
C158        N176   1.345       .  A
C158        C195   1.473       .  S
C158        C529   1.493       .  S
N159        N176   1.319       .  A
N159        N181   1.319       .  A
N159       Co196   2.068       .  S
C160        N185   1.341       .  A
C160        H205   1.081       .  S
C160        C198   1.462       .  S
H161        C202   1.082       .  S
C162        N186   1.335       .  A
C162        H191   1.079       .  S
C162        C166   1.462       .  S
Co163       N181   2.097       .  S
Co163       N171   2.099       .  S
Co163       N203   2.086       .  S
Co163       N179   2.098       .  S
Co163      Cl207   2.459       .  S
N164        C202   1.339       .  A
N164        N171   1.320       .  A
N164       Co165   2.088       .  S
Co165       N168   2.095       .  S
Co165       N185   2.087       .  S
Co165       N172   2.091       .  S
Co165      Cl207   2.447       .  S
C166        N204   1.357       .  A
C166        C517   1.491       .  S
N167        N174   1.321       .  A
N167        N197   1.324       .  A
N167       Co200   2.085       .  S
N168        N186   1.317       .  A
N168        N204   1.326       .  A
N169        C198   1.354       .  A
N169        N179   1.328       .  A
H170        C195   1.081       .  S
N171        N192   1.327       .  A
N172        N190   1.319       .  A
N172        N177   1.325       .  A
C173        N177   1.351       .  A
C173        C201   1.462       .  S
C173        C685   1.481       .  S
N174        C189   1.342       .  A
N174       Co196   2.090       .  S
C175        N203   1.340       .  A
C175        H209   1.081       .  S
C175        C178   1.464       .  S
C178        N199   1.349       .  A
C178        C697   1.485       .  S
N179        N185   1.319       .  A
N180        C206   1.337       .  A
N180        N182   1.317       .  A
N180       Co196   2.070       .  S
N181        C195   1.345       .  A
N182        N210   1.324       .  A
N182       Co200   2.077       .  S
H183        C206   1.080       .  S
H184        C201   1.081       .  S
N186       Co200   2.069       .  S
N187        N199   1.323       .  A
N187        N203   1.319       .  A
N187       Co196   2.079       .  S
C188        N192   1.355       .  A
C188        C202   1.465       .  S
C188        C772   1.488       .  S
C189        H193   1.081       .  S
C189        C208   1.460       .  S
N190        C201   1.339       .  A
N190       Co200   2.078       .  S
C194        N210   1.350       .  A
C194        C206   1.457       .  S
C194        C541   1.474       .  S
Co196      Cl207   2.440       .  S
N197        C208   1.349       .  A
C198        C553   1.491       .  S
Co200      Cl207   2.456       .  S
C208        C760   1.472       .  S
C211        N229   1.354       .  A
C211        C652   1.490       .  S
C211       C1028   1.463       .  S
N212        N229   1.327       .  A
N212       N1014   1.319       .  A
N212       Co249   2.093       .  S
C213        N238   1.342       .  A
C213        H258   1.081       .  S
C213        C251   1.465       .  S
H214        C255   1.081       .  S
C215        N239   1.347       .  A
C215        H244   1.081       .  S
C215        C219   1.473       .  S
Co216       N234   2.079       .  S
Co216       N224   2.082       .  S
Co216       N256   2.075       .  S
Co216       N232   2.082       .  S
Co216     Cl2600   2.442   1_445  S
N217        C255   1.339       .  A
N217       N1784   1.320       .  A
N217       Co218   2.078       .  S
Co218       N221   2.087       .  S
Co218       N238   2.089       .  S
Co218       N225   2.073   1_545  S
Co218     Cl1040   2.454   1_545  S
C219       N1037   1.347       .  A
C219        C637   1.496       .  S
N220        N250   1.327       .  A
N220       N1787   1.321       .  A
N220       Co253   2.095       .  S
N221        N257   1.322       .  A
N221       N1019   1.320   1_545  A
N222       C1811   1.350   1_455  A
N222        N232   1.325       .  A
H223        C248   1.081       .  S
N224        N245   1.323       .  A
N224       N1777   1.320   1_455  A
N225        N230   1.322   1_565  A
N225       N1023   1.319       .  A
C226       N1010   1.348       .  A
C226        C254   1.463       .  S
C226        C481   1.476       .  S
N227        C242   1.338       .  A
N227       N1780   1.320   1_455  A
N227       Co249   2.089       .  S
C228        N256   1.336       .  A
C228        H262   1.080       .  S
C228       C1011   1.463   1_545  S
N230       C1006   1.350   1_545  A
C231        N252   1.353       .  A
C231        C469   1.489       .  S
C231       C1008   1.462       .  S
N232       N1798   1.318   1_455  A
N233        C259   1.341       .  A
N233       N1795   1.318   1_455  A
N233       Co249   2.088       .  S
N234        C248   1.337       .  A
N234        N992   1.319   1_545  A
N235        N263   1.324       .  A
N235       N1793   1.318       .  A
N235       Co253   2.082       .  S
H236        C259   1.080       .  S
H237        C254   1.081       .  S
N238       N1792   1.318       .  A
N239       N1001   1.319       .  A
N239       Co253   2.096       .  S
N240        N252   1.325       .  A
N240       N1036   1.317       .  A
N240       Co249   2.086       .  S
C241       N1805   1.350       .  A
C241        C255   1.458       .  S
C241        C592   1.474       .  S
C242        H246   1.081       .  S
C242       C1821   1.465       .  S
N243        C254   1.341       .  A
N243       N1005   1.319       .  A
N243       Co253   2.086       .  S
N245       C1801   1.349   1_455  A
C247        N263   1.349       .  A
C247        C505   1.489       .  S
C247       C1819   1.465       .  S
C248        C991   1.462   1_545  S
Co249     Cl1820   2.454   1_455  S
N250        C261   1.355       .  A
C251       N1782   1.349       .  A
C251        C493   1.485       .  S
Co253      Cl260   2.456       .  S
N256       N1020   1.317   1_545  A
N257        C999   1.350   1_545  A
C259       C1807   1.467       .  S
Cl260     Co2556   2.445       .  S
Cl260      Co998   2.450       .  S
Cl260     Co1809   2.453       .  S
C261        C601   1.486       .  S
C261       C1802   1.462       .  S
C264        N282   1.347       .  A
C264        C409   1.468       .  S
C264       C1861   1.460       .  S
N265        N282   1.323       .  A
N265       N1847   1.320       .  A
N265       Co302   2.077       .  S
C266        N291   1.339       .  A
C266        H311   1.081       .  S
C266        C304   1.460       .  S
H267        C308   1.078       .  S
C268        N292   1.339       .  A
C268        H297   1.081       .  S
C268        C272   1.464       .  S
Co269       N287   2.088       .  S
Co269       N277   2.081       .  S
Co269       N309   2.082       .  S
Co269       N285   2.086   1_545  S
Co269     Cl2653   2.443   1_545  S
N270        C308   1.346       .  A
N270       N1057   1.318       .  A
N270       Co271   2.097       .  S
Co271       N274   2.086       .  S
Co271       N291   2.077       .  S
Co271       N278   2.085       .  S
Co271     Cl1873   2.451   1_455  S
C272       N1870   1.352       .  A
C272        C397   1.482       .  S
N273        N303   1.326       .  A
N273       N1060   1.319       .  A
N273       Co306   2.086       .  S
N274        N310   1.323       .  A
N274       N1852   1.320   1_455  A
N275       C1084   1.351   1_545  A
N275        N285   1.324   1_545  A
H276        C301   1.081       .  S
N277        N298   1.322       .  A
N277       N1050   1.319   1_545  A
N278        N283   1.325       .  A
N278       N1856   1.320   1_455  A
C279       N1843   1.352       .  A
C279        C307   1.461       .  S
C279        C436   1.485       .  S
N280        C295   1.337       .  A
N280       N1053   1.318   1_545  A
N280       Co302   2.081       .  S
C281        N309   1.340       .  A
C281        H315   1.081       .  S
C281       C1844   1.466       .  S
N283       C1839   1.349   1_455  A
C284        N305   1.351       .  A
C284        C421   1.492       .  S
C284       C1841   1.466       .  S
N285       N1071   1.319       .  A
N286        C312   1.337       .  A
N286       N1068   1.319   1_545  A
N286       Co302   2.077       .  S
N287        C301   1.341       .  A
N287       N1825   1.320   1_455  A
N288        N316   1.324       .  A
N288       N1066   1.319       .  A
N288       Co306   2.084       .  S
H289        C312   1.081       .  S
H290        C307   1.081       .  S
N291       N1065   1.319       .  A
N292       N1834   1.320       .  A
N292       Co306   2.085       .  S
N293        N305   1.324       .  A
N293       N1869   1.317       .  A
N293       Co302   2.079       .  S
C294       N1078   1.353       .  A
C294        C308   1.475       .  S
C294        C748   1.504       .  S
C295        H299   1.082       .  S
C295       C1094   1.463   1_545  S
N296        C307   1.341       .  A
N296       N1838   1.319       .  A
N296       Co306   2.084       .  S
N298       C1074   1.352   1_545  A
C300        N316   1.351       .  A
C300        C457   1.476       .  S
C300       C1092   1.456       .  S
C301       C1824   1.459       .  S
Co302     Cl1093   2.451   1_545  S
N303        C314   1.352       .  A
C304       N1055   1.350       .  A
C304        C445   1.476       .  S
Co306      Cl313   2.449       .  S
N309       N1853   1.317   1_455  A
N310       C1832   1.352   1_455  A
C312       C1080   1.458   1_545  S
Cl313     Co2609   2.442       .  S
Cl313     Co1831   2.457       .  S
Cl313     Co1082   2.450       .  S
C314        C733   1.483       .  S
C314       C1075   1.462       .  S
N317        C322   1.354       .  A
N317        C321   1.354       .  A
N317        H349   1.039       .  S
N318        C325   1.350       .  A
N318        C326   1.351       .  A
N319        C324   1.351       .  A
N319        C323   1.353       .  A
N319        H350   1.037       .  S
N320        C327   1.352       .  A
N320        C328   1.352       .  A
C321        C329   1.387       .  A
C321        C337   1.416       .  A
C322        C338   1.417       .  A
C322        C330   1.386       .  A
C323        C331   1.387       .  A
C323        C340   1.414       .  A
C324        C339   1.414       .  A
C324        C332   1.388       .  A
C325        C337   1.412       .  A
C325        C333   1.387       .  A
C326        C340   1.411       .  A
C326        C334   1.385       .  A
C327        C335   1.387       .  A
C327        C338   1.416       .  A
C328        C336   1.386       .  A
C328        C339   1.413       .  A
C329        C330   1.379       .  A
C329        H341   1.082       .  S
C330        H342   1.082       .  S
C331        C332   1.376       .  A
C331        H343   1.082       .  S
C332        H344   1.082       .  S
C333        C334   1.372       .  A
C333        H345   1.082       .  S
C334        H346   1.082       .  S
C335        C336   1.371       .  A
C335        H347   1.082       .  S
C336        H348   1.082       .  S
C337        C508   1.485       .  S
C338        C433   1.494       .  S
C339        C424   1.484       .  S
C340        C496   1.486       .  S
N351        C356   1.351       .  A
N351        C355   1.351       .  A
N351        H383   1.039       .  S
N352        C359   1.350       .  A
N352        C360   1.350       .  A
N353        C358   1.350       .  A
N353        C357   1.350       .  A
N353        H384   1.040       .  S
N354        C361   1.349       .  A
N354        C362   1.350       .  A
C355        C363   1.388       .  A
C355        C371   1.412       .  A
C356        C372   1.412       .  A
C356        C364   1.387       .  A
C357        C365   1.387       .  A
C357        C374   1.410       .  A
C358        C373   1.410       .  A
C358        C366   1.387       .  A
C359        C371   1.412       .  A
C359        C367   1.387       .  A
C360        C374   1.411       .  A
C360        C368   1.386       .  A
C361        C369   1.386       .  A
C361        C372   1.411       .  A
C362        C370   1.386       .  A
C362        C373   1.410       .  A
C363        C364   1.376       .  A
C363        H375   1.082       .  S
C364        H376   1.082       .  S
C365        C366   1.375       .  A
C365        H377   1.082       .  S
C366        H378   1.082       .  S
C367        C368   1.372       .  A
C367        H379   1.082       .  S
C368        H380   1.082       .  S
C369        C370   1.370       .  A
C369        H381   1.082       .  S
C370        H382   1.082       .  S
C371        C472   1.480       .  S
C372        C448   1.481       .  S
C373        C460   1.482       .  S
C374        C484   1.481       .  S
C385        C386   1.530       .  S
C385       C1951   1.534   1_455  S
C385       C1949   1.537   1_455  S
C385       C1972   1.542       .  S
C386        H393   1.084       .  S
C386        C387   1.375       .  D
C387        C388   1.555       .  S
C387        C520   1.521       .  S
C388        C390   1.546   1_455  S
C388       C1952   1.541   1_455  S
C388        H394   1.096       .  S
C389       C1945   1.538       .  S
C389        H395   1.081       .  S
C389       C1950   1.363       .  D
C390       C1949   1.361       .  D
C390       C1960   1.474       .  S
C391       C1945   1.533       .  S
C391        H396   1.086       .  S
C391        C392   1.369       .  D
C392       C1948   1.540       .  S
C392        C532   1.500       .  S
C397        C398   1.404       .  A
C397       C1962   1.414       .  A
C398        C399   1.397       .  A
C398        H407   1.082       .  S
C399        C400   1.415       .  A
C399        S403   1.807       .  S
C400       C1950   1.478       .  S
C400       C1961   1.398       .  A
C401        C402   1.397       .  A
C401       C1960   1.398   1_455  A
C401        H408   1.080       .  S
C402       C1957   1.414   1_455  A
C402        S404   1.801       .  S
S403        H406   1.400       .  S
S404        H405   1.407       .  S
C409        C414   1.408       .  A
C409       C1970   1.395       .  A
C410        C411   1.404       .  A
C410       C1969   1.396       .  A
C410        H419   1.083       .  S
C411       C1972   1.426       .  A
C411        S415   1.812       .  S
C412       C1945   1.540       .  S
C412        C413   1.414       .  A
C412       C1971   1.426       .  A
C413        C414   1.399       .  A
C413        H420   1.075       .  S
C414        S416   1.807       .  S
S415        H418   1.406       .  S
S416        H417   1.404       .  S
C421        C426   1.420       .  A
C421       C1982   1.408       .  A
C422        C423   1.397       .  A
C422       C1981   1.407       .  A
C422        H431   1.081       .  S
C423       C1984   1.409       .  A
C423        S427   1.806       .  S
C424        C425   1.400       .  A
C424       C1983   1.410       .  A
C425        C426   1.399       .  A
C425        H432   1.084       .  S
C426        S428   1.799       .  S
S427        H430   1.404       .  S
S428        H429   1.406       .  S
C433        C434   1.403       .  A
C433       C1998   1.414       .  A
C434        C435   1.399       .  A
C434        H443   1.084       .  S
C435        C436   1.415       .  A
C435        S439   1.802       .  S
C436       C1997   1.406       .  A
C437        C438   1.400       .  A
C437       C1996   1.404   1_455  A
C437        H444   1.084       .  S
C438       C1993   1.413       .  A
C438        S440   1.804       .  S
S439        H442   1.407       .  S
S440        H441   1.405       .  S
C445        C450   1.415       .  A
C445       C1226   1.405       .  A
C446        C447   1.399       .  A
C446       C1225   1.406   1_545  A
C446        H455   1.084       .  S
C447       C1228   1.411   1_545  A
C447        S451   1.805       .  S
C448        C449   1.401       .  A
C448       C1227   1.411       .  A
C449        C450   1.395       .  A
C449        H456   1.084       .  S
C450        S452   1.801       .  S
S451        H454   1.404       .  S
S452        H453   1.407       .  S
C457        C462   1.414       .  A
C457       C1238   1.405       .  A
C458        C459   1.397       .  A
C458       C1237   1.405   1_545  A
C458        H467   1.081       .  S
C459       C1240   1.410   1_545  A
C459        S463   1.804       .  S
C460        C461   1.402       .  A
C460       C1239   1.411       .  A
C461        C462   1.396       .  A
C461        H468   1.084       .  S
C462        S464   1.801       .  S
S463        H466   1.406       .  S
S464        H465   1.408       .  S
C469        C474   1.420       .  A
C469       C1250   1.408       .  A
C470        C471   1.394       .  A
C470       C1249   1.408   1_545  A
C470        H479   1.079       .  S
C471       C1252   1.406   1_545  A
C471        S475   1.805       .  S
C472        C473   1.401       .  A
C472       C1251   1.406       .  A
C473        C474   1.404       .  A
C473        H480   1.083       .  S
C474        S476   1.808       .  S
S475        H478   1.404       .  S
S476        H477   1.407       .  S
C481        C486   1.415       .  A
C481       C1262   1.406       .  A
C482        C483   1.399       .  A
C482       C1261   1.408   1_545  A
C482        H491   1.084       .  S
C483       C1264   1.409   1_545  A
C483        S487   1.804       .  S
C484        C485   1.401       .  A
C484       C1263   1.410       .  A
C485        C486   1.396       .  A
C485        H492   1.084       .  S
C486        S488   1.800       .  S
S487        H490   1.406       .  S
S488        H489   1.407       .  S
C493        C494   1.406       .  A
C493        C498   1.418       .  A
C494        C495   1.403       .  A
C494        H503   1.082       .  S
C495        C496   1.408       .  A
C495        S499   1.806       .  S
C496        C497   1.399       .  A
C497        C498   1.399       .  A
C497        H504   1.084       .  S
C498        S500   1.801       .  S
S499        H502   1.407       .  S
S500        H501   1.407       .  S
C505        C510   1.420       .  A
C505       C2066   1.407       .  A
C506        C507   1.398       .  A
C506       C2065   1.408       .  A
C506        H515   1.081       .  S
C507       C2068   1.408       .  A
C507        S511   1.804       .  S
C508        C509   1.401       .  A
C508       C2067   1.409       .  A
C509        C510   1.404       .  A
C509        H516   1.083       .  S
C510        S512   1.809       .  S
S511        H514   1.404       .  S
S512        H513   1.407       .  S
C517        C518   1.403       .  A
C517        C522   1.412       .  A
C518        C519   1.409       .  A
C518        H527   1.082       .  S
C519        C520   1.427       .  A
C519        S523   1.804       .  S
C520        C521   1.414       .  A
C521        C522   1.395       .  A
C521        H528   1.080       .  S
C522        S524   1.804       .  S
S523        H526   1.406       .  S
S524        H525   1.408       .  S
C529        C530   1.404       .  A
C529        C534   1.420       .  A
C530        C531   1.406       .  A
C530        H539   1.080       .  S
C531        C532   1.421       .  A
C531        S535   1.807       .  S
C532        C533   1.403       .  A
C533        C534   1.395       .  A
C533        H540   1.084       .  S
C534        S536   1.802       .  S
S535        H538   1.406       .  S
S536        H537   1.408       .  S
C541        C542   1.402       .  A
C541        C546   1.416       .  A
C542        C543   1.397       .  A
C542        H551   1.083       .  S
C543        C544   1.412       .  A
C543        S547   1.804       .  S
C544        C545   1.402       .  A
C545        C546   1.397       .  A
C545        H552   1.084       .  S
C546        S548   1.802       .  S
S547        H550   1.406       .  S
S548        H549   1.408       .  S
C553        C554   1.405       .  A
C553        C558   1.419       .  A
C554        C555   1.403       .  A
C554        H563   1.084       .  S
C555        C556   1.416       .  A
C555        S559   1.804       .  S
C556        C557   1.403       .  A
C557        C558   1.404       .  A
C557        H564   1.084       .  S
C558        S560   1.803       .  S
S559        H562   1.406       .  S
S560        H561   1.407       .  S
C565        C566   1.406       .  A
C565        C570   1.416       .  A
C566        C567   1.402       .  A
C566        H575   1.083       .  S
C567        C568   1.413       .  A
C567        S571   1.804       .  S
C568        C569   1.403       .  A
C569        C570   1.403       .  A
C569        H576   1.084       .  S
C570        S572   1.801       .  S
S571        H574   1.405       .  S
S572        H573   1.407       .  S
C577        C578   1.401       .  A
C577        C582   1.410       .  A
C578        C579   1.396       .  A
C578        H587   1.084       .  S
C579        C580   1.416       .  A
C579        S583   1.801       .  S
C580        C581   1.407       .  A
C581        C582   1.398       .  A
C581        H588   1.082       .  S
C582        S584   1.806       .  S
S583        H586   1.408       .  S
S584        H585   1.404       .  S
C589       C1619   1.543       .  S
C589        C594   1.425       .  A
C589       C2150   1.415       .  A
C590        C591   1.402       .  A
C590       C2149   1.415   1_455  A
C590        H599   1.072       .  S
C591       C2152   1.406   1_455  A
C591        S595   1.810       .  S
C592        C593   1.400       .  A
C592       C2151   1.403       .  A
C593        C594   1.404       .  A
C593        H600   1.082       .  S
C594        S596   1.810       .  S
S595        H598   1.407       .  S
S596        H597   1.407       .  S
C601        C606   1.415       .  A
C601       C2162   1.406       .  A
C602        C603   1.398       .  A
C602       C2161   1.407       .  A
C602        H611   1.082       .  S
C603       C2164   1.412       .  A
C603        S607   1.806       .  S
C604       C1626   1.484       .  S
C604        C605   1.404       .  A
C604       C2163   1.412       .  A
C605        C606   1.405       .  A
C605        H612   1.083       .  S
C606        S608   1.803       .  S
S607        H610   1.402       .  S
S608        H609   1.407       .  S
C613        C614   1.404       .  A
C613        C618   1.418       .  A
C614        C615   1.398       .  A
C614        H623   1.083       .  S
C615        C616   1.413       .  A
C615        S619   1.805       .  S
C616        C617   1.404       .  A
C617        C618   1.406       .  A
C617        H624   1.083       .  S
C618        S620   1.803       .  S
S619        H622   1.406       .  S
S620        H621   1.407       .  S
C625        C626   1.404       .  A
C625        C630   1.416       .  A
C626        C627   1.406       .  A
C626        H635   1.084       .  S
C627        C628   1.415       .  A
C627        S631   1.804       .  S
C628        C629   1.399       .  A
C629        C630   1.401       .  A
C629        H636   1.084       .  S
C630        S632   1.804       .  S
S631        H634   1.405       .  S
S632        H633   1.401       .  S
C637        C638   1.408       .  A
C637       C1422   1.418       .  A
C638        C639   1.412       .  A
C638        H647   1.080       .  S
C639        C640   1.417       .  A
C639        S643   1.802       .  S
C640       C1421   1.405       .  A
C641        C642   1.396       .  A
C641       C1420   1.409       .  A
C641        H648   1.084       .  S
C642       C1417   1.417   1_545  A
C642        S644   1.803       .  S
S643        H646   1.406       .  S
S644        H645   1.408       .  S
C649        C650   1.404       .  A
C649       C1434   1.413       .  A
C650        C651   1.404       .  A
C650        H659   1.083       .  S
C651        C652   1.416       .  A
C651        S655   1.802       .  S
C652       C1433   1.407       .  A
C653        C654   1.397       .  A
C653       C1432   1.406   1_545  A
C653        H660   1.082       .  S
C654       C1429   1.412       .  A
C654        S656   1.805       .  S
S655        H658   1.407       .  S
S656        H657   1.407       .  S
C661        C662   1.403       .  A
C661        C666   1.408       .  A
C662        C663   1.408       .  A
C662        H671   1.082       .  S
C663        C664   1.424       .  A
C663        S667   1.811       .  S
C664        C665   1.413       .  A
C665        C666   1.395       .  A
C665        H672   1.076       .  S
C666        S668   1.805       .  S
S667        H670   1.406       .  S
S668        H669   1.407       .  S
C673        C674   1.398       .  A
C673        C678   1.413       .  A
C674        C675   1.397       .  A
C674        H683   1.082       .  S
C675        C676   1.417       .  A
C675        S679   1.802       .  S
C676        C677   1.409       .  A
C677        C678   1.402       .  A
C677        H684   1.081       .  S
C678        S680   1.809       .  S
S679        H682   1.408       .  S
S680        H681   1.399       .  S
C685        C686   1.406       .  A
C685        C690   1.416       .  A
C686        C687   1.399       .  A
C686        H695   1.084       .  S
C687        C688   1.411       .  A
C687        S691   1.804       .  S
C688        C689   1.401       .  A
C689        C690   1.397       .  A
C689        H696   1.084       .  S
C690        S692   1.802       .  S
S691        H694   1.406       .  S
S692        H693   1.407       .  S
C697        C698   1.406       .  A
C697        C702   1.419       .  A
C698        C699   1.397       .  A
C698        H707   1.082       .  S
C699        C700   1.409       .  A
C699        S703   1.804       .  S
C700        C701   1.399       .  A
C701        C702   1.402       .  A
C701        H708   1.083       .  S
C702        S704   1.808       .  S
S703        H706   1.405       .  S
S704        H705   1.407       .  S
C709        C710   1.404       .  A
C709        C714   1.418       .  A
C710        C711   1.397       .  A
C710        H719   1.081       .  S
C711        C712   1.411       .  A
C711        S715   1.806       .  S
C712        C713   1.401       .  A
C713        C714   1.399       .  A
C713        H720   1.084       .  S
C714        S716   1.801       .  S
S715        H718   1.404       .  S
S716        H717   1.407       .  S
C721        C722   1.403       .  A
C721        C726   1.413       .  A
C722        C723   1.398       .  A
C722        H731   1.084       .  S
C723        C724   1.416       .  A
C723        S727   1.802       .  S
C724        C725   1.404       .  A
C725        C726   1.400       .  A
C725        H732   1.084       .  S
C726        S728   1.804       .  S
S727        H730   1.407       .  S
S728        H729   1.405       .  S
C733        C738   1.416       .  A
C733       C1514   1.403       .  A
C734        C735   1.394       .  A
C734       C1513   1.403   1_545  A
C734        H743   1.083       .  S
C735       C1516   1.411       .  A
C735        S739   1.796       .  S
C736        C737   1.402       .  A
C736       C1515   1.412       .  A
C737        C738   1.404       .  A
C737        H744   1.080       .  S
C738        S740   1.803       .  S
S739        H742   1.403       .  S
S740        H741   1.407       .  S
C745        C746   1.404       .  A
C745       C1530   1.414       .  A
C746        C747   1.410       .  A
C746        H755   1.082       .  S
C747        C748   1.421       .  A
C747        S751   1.803       .  S
C748       C1529   1.409       .  A
C749        C750   1.403       .  A
C749       C1528   1.409   1_545  A
C749        H756   1.082       .  S
C750       C1525   1.413       .  A
C750        S752   1.808       .  S
S751        H754   1.406       .  S
S752        H753   1.407       .  S
C757        C758   1.415       .  A
C757        C762   1.426       .  A
C758        C759   1.399       .  A
C758        H767   1.074       .  S
C759        C760   1.406       .  A
C759        S763   1.805       .  S
C760        C761   1.396       .  A
C761        C762   1.406       .  A
C761        H768   1.083       .  S
C762        S764   1.808       .  S
S763        H766   1.406       .  S
S764        H765   1.406       .  S
C769        C770   1.403       .  A
C769        C774   1.413       .  A
C770        C771   1.406       .  A
C770        H779   1.080       .  S
C771        C772   1.416       .  A
C771        S775   1.803       .  S
C772        C773   1.404       .  A
C773        C774   1.397       .  A
C773        H780   1.082       .  S
C774        S776   1.805       .  S
S775        H778   1.407       .  S
S776        H777   1.403       .  S
C781        C782   1.537       .  S
C781        C787   1.537       .  S
C781        C785   1.545       .  S
C781       C1537   1.546       .  S
C782        H789   1.086       .  S
C783        C784   1.544   1_545  S
C783       C1516   1.487       .  S
C784        C788   1.547   1_565  S
C784        C786   1.540       .  S
C784        H790   1.111       .  S
C786       C1549   1.487       .  S
C787        H792   1.085       .  S
C788       C1525   1.494       .  S
N793        C798   1.352       .  A
N793        C797   1.354   1_554  A
N793        H825   1.039       .  S
N794       C2361   1.350       .  A
N794        C802   1.352   1_655  A
N795        C800   1.351       .  A
N795        C799   1.353   1_554  A
N795        H826   1.039       .  S
N796       C2363   1.349       .  A
N796        C804   1.349   1_655  A
C797        C805   1.387       .  A
C797        C813   1.416       .  A
C798        C814   1.415       .  A
C798        C806   1.387       .  A
C799        C807   1.386       .  A
C799        C816   1.412       .  A
C800        C815   1.414       .  A
C800        C808   1.387       .  A
C801       N2354   1.350       .  A
C801        C813   1.413       .  A
C801        C809   1.387       .  A
C802        C816   1.411       .  A
C802        C810   1.385       .  A
C803       N2356   1.349       .  A
C803        C811   1.387       .  A
C803        C814   1.411       .  A
C804        C812   1.387       .  A
C804        C815   1.411       .  A
C805        C806   1.380   1_556  A
C805        H817   1.082       .  S
C806        H818   1.082       .  S
C807        C808   1.378   1_556  A
C807        H819   1.082       .  S
C808        H820   1.082       .  S
C809       C2370   1.370       .  A
C809        H821   1.082       .  S
C810       C2369   1.372   1_455  A
C810        H822   1.082       .  S
C811       C2372   1.371       .  A
C811        H823   1.082       .  S
C812       C2371   1.373   1_455  A
C812        H824   1.082       .  S
C813       C1501   1.489       .  S
C814       C1480   1.484       .  S
C815       C1468   1.485       .  S
C816       C1492   1.487       .  S
C827        C828   1.533       .  S
C827        C833   1.533       .  S
C827        C831   1.543       .  S
C827       C1444   1.541       .  S
C829        C830   1.548       .  S
C829       C1453   1.479       .  S
C830        C834   1.539   1_565  S
C830        C832   1.550   1_565  S
C830        H836   1.107       .  S
C831        H837   1.081       .  S
C832       C1420   1.509       .  S
C833        H838   1.086       .  S
C834       C1429   1.485       .  S
C839        C840   1.547   1_655  S
C839        C845   1.539       .  S
C839       C2403   1.538       .  S
C839       C2929   1.549       .  S
C840        H847   1.079       .  S
C840        C841   1.365       .  D
C841        C842   1.545   1_455  S
C841       C1396   1.494       .  S
C842        C846   1.544       .  S
C842       C2404   1.544       .  S
C842        H848   1.111       .  S
C843       C2399   1.536       .  S
C843        H849   1.086       .  S
C843        C844   1.364       .  D
C844       C2402   1.543       .  S
C844       C1405   1.484       .  S
C845        H850   1.086   1_655  S
C845        C846   1.368       .  D
C846       C2944   1.489   1_655  S
N851        C856   1.352   1_554  A
N851        C855   1.357       .  A
N851        H883   1.040       .  S
N852        C860   1.351       .  A
N853        C858   1.354       .  A
N853        C857   1.350   1_556  A
N853        H884   1.037       .  S
N854        C862   1.354       .  A
C855        C863   1.386       .  A
C855        C871   1.420       .  A
C856        C872   1.417       .  A
C856        C864   1.388       .  A
C857        C865   1.388       .  A
C857        C874   1.414       .  A
C858        C873   1.414       .  A
C858        C866   1.386       .  A
C859        C871   1.415       .  A
C859        C867   1.385       .  A
C860        C874   1.415       .  A
C860        C868   1.387       .  A
C861        C869   1.389       .  A
C861        C872   1.416       .  A
C862        C870   1.384       .  A
C862        C873   1.412       .  A
C863        C864   1.379   1_554  A
C863        H875   1.082       .  S
C864        H876   1.082       .  S
C865        C866   1.376   1_554  A
C865        H877   1.082       .  S
C866        H878   1.082       .  S
C867        H879   1.082       .  S
C868        H880   1.082       .  S
C869        H881   1.082       .  S
C870        H882   1.082       .  S
C871       C1336   1.503       .  S
C872       C1357   1.484       .  S
C873       C1348   1.493       .  S
C874       C1324   1.482       .  S
C885        N903   1.352       .  A
C885        C922   1.460       .  S
C885       C1504   1.481       .  S
N886        N903   1.326       .  A
N886        N908   1.319       .  A
N886       Co923   2.086       .  S
C887        N912   1.342       .  A
C887        H932   1.081       .  S
C887        C925   1.470       .  S
H888        C929   1.081       .  S
C889        N913   1.341       .  A
C889        H918   1.081       .  S
C889        C893   1.468       .  S
Co890       N908   2.085       .  S
Co890       N898   2.076       .  S
Co890       N930   2.088       .  S
Co890       N906   2.088       .  S
Co890      Cl934   2.449       .  S
N891        C929   1.340       .  A
N891        N898   1.319       .  A
N891       Co892   2.080       .  S
Co892       N895   2.086       .  S
Co892       N912   2.091       .  S
Co892       N899   2.088       .  S
Co892      Cl934   2.459       .  S
C893        N931   1.351       .  A
C893       C1489   1.495       .  S
N894        N901   1.320       .  A
N894        N924   1.326       .  A
N894       Co927   2.094       .  S
N895        N913   1.318       .  A
N895        N931   1.324       .  A
N896        C925   1.352       .  A
N896        N906   1.323       .  A
H897        C922   1.081       .  S
N898        N919   1.323       .  A
N899        N917   1.320       .  A
N899        N904   1.327       .  A
C900        N904   1.353       .  A
C900        C928   1.468       .  S
C900       C1393   1.495       .  S
N901        C916   1.343       .  A
N901       Co923   2.088       .  S
C902        N930   1.343       .  A
C902        H936   1.082       .  S
C902        C905   1.459       .  S
C905        N926   1.352       .  A
C905       C1408   1.479       .  S
N906        N912   1.319       .  A
N907        C933   1.339       .  A
N907        N909   1.322       .  A
N907       Co923   2.086       .  S
N908        C922   1.340       .  A
N909        N937   1.324       .  A
N909       Co927   2.088       .  S
H910        C933   1.081       .  S
H911        C928   1.081       .  S
N913       Co927   2.089       .  S
N914        N926   1.327       .  A
N914        N930   1.321       .  A
N914       Co923   2.097       .  S
C915        N919   1.348       .  A
C915        C929   1.460       .  S
C915       C1360   1.479       .  S
C916        H920   1.082       .  S
C916        C935   1.463       .  S
N917        C928   1.343       .  A
N917       Co927   2.099       .  S
C921        N937   1.351       .  A
C921        C933   1.462       .  S
C921       C1441   1.480       .  S
Co923      Cl934   2.459       .  S
N924        C935   1.352       .  A
C925       C1456   1.494       .  S
Co927      Cl934   2.450       .  S
C935       C1345   1.488       .  S
C938        N956   1.344       .  A
C938        C975   1.476       .  S
C938       C1309   1.493       .  S
N939        N956   1.318       .  A
N939        N961   1.319       .  A
N939       Co976   2.067       .  S
C940        N965   1.343       .  A
C940        H985   1.081       .  S
C940        C978   1.464       .  S
H941        C982   1.082       .  S
C942        N966   1.335       .  A
C942        H971   1.079       .  S
C942        C946   1.463       .  S
Co943       N961   2.102       .  S
Co943       N951   2.095       .  S
Co943       N983   2.084       .  S
Co943       N959   2.102       .  S
Co943      Cl987   2.459       .  S
N944        C982   1.341       .  A
N944        N951   1.320       .  A
N944       Co945   2.091       .  S
Co945       N948   2.103       .  S
Co945       N965   2.094       .  S
Co945       N952   2.092       .  S
Co945      Cl987   2.450       .  S
C946        N984   1.358       .  A
C946       C1297   1.495       .  S
N947        N954   1.320       .  A
N947        N977   1.324       .  A
N947       Co980   2.079       .  S
N948        N966   1.318       .  A
N948        N984   1.328       .  A
N949        C978   1.354       .  A
N949        N959   1.328       .  A
H950        C975   1.081       .  S
N951        N972   1.326       .  A
N952        N970   1.318       .  A
N952        N957   1.324       .  A
C953        N957   1.352       .  A
C953        C981   1.461       .  S
C953       C1465   1.482       .  S
N954        C969   1.341       .  A
N954       Co976   2.088       .  S
C955        N983   1.340       .  A
C955        H989   1.081       .  S
C955        C958   1.462       .  S
C958        N979   1.350       .  A
C958       C1477   1.484       .  S
N959        N965   1.320       .  A
N960        C986   1.338       .  A
N960        N962   1.318       .  A
N960       Co976   2.073       .  S
N961        C975   1.347       .  A
N962        N990   1.323       .  A
N962       Co980   2.080       .  S
H963        C986   1.080       .  S
H964        C981   1.081       .  S
N966       Co980   2.074       .  S
N967        N979   1.324       .  A
N967        N983   1.319       .  A
N967       Co976   2.082       .  S
C968        N972   1.354       .  A
C968        C982   1.465       .  S
C968       C1552   1.488       .  S
C969        H973   1.081       .  S
C969        C988   1.459       .  S
N970        C981   1.338       .  A
N970       Co980   2.072       .  S
C974        N990   1.350       .  A
C974        C986   1.459       .  S
C974       C1321   1.476       .  S
Co976      Cl987   2.442       .  S
N977        C988   1.348       .  A
C978       C1333   1.494       .  S
Co980      Cl987   2.456       .  S
C988       C1540   1.469       .  S
C991       N1009   1.353       .  A
C991       C1432   1.485       .  S
N992       N1009   1.326       .  A
N992      Co1029   2.089       .  S
C993       N1018   1.341       .  A
C993       H1038   1.082       .  S
C993       C1031   1.462       .  S
H994       C1035   1.081       .  S
C995       N1019   1.346       .  A
C995       H1024   1.081       .  S
C995        C999   1.472       .  S
Co996      N1014   2.081       .  S
Co996      N1004   2.083       .  S
Co996      N1036   2.073       .  S
Co996      N1012   2.084       .  S
Co996     Cl1820   2.443   1_455  S
N997       C1035   1.341       .  A
N997       N2564   1.319       .  A
N997       Co998   2.078       .  S
Co998      N1001   2.078       .  S
Co998      N1018   2.081       .  S
Co998      N1005   2.071       .  S
C999       C1417   1.499       .  S
N1000      N2567   1.321       .  A
N1000      N1030   1.328       .  A
N1000     Co1033   2.105       .  S
N1001      N1037   1.319       .  A
N1002      C2591   1.351   1_455  A
N1002      N1012   1.325       .  A
H1003      C1028   1.081       .  S
N1004      N2557   1.319   1_455  A
N1004      N1025   1.323       .  A
N1005      N1010   1.321       .  A
C1006      C1034   1.465       .  S
C1006      C1261   1.483       .  S
N1007      C1022   1.340       .  A
N1007      N2560   1.320   1_455  A
N1007     Co1029   2.095       .  S
C1008      N1036   1.335       .  A
C1008      H1042   1.080       .  S
C1011      N1032   1.353       .  A
C1011      C1249   1.492       .  S
N1012      N2578   1.317   1_455  A
N1013      C1039   1.341       .  A
N1013      N2575   1.317   1_455  A
N1013     Co1029   2.084       .  S
N1014      C1028   1.337       .  A
N1015      N2573   1.318       .  A
N1015      N1043   1.323       .  A
N1015     Co1033   2.077       .  S
H1016      C1039   1.081       .  S
H1017      C1034   1.080       .  S
N1018      N2572   1.318       .  A
N1019     Co1033   2.097       .  S
N1020      N1032   1.326       .  A
N1020     Co1029   2.089       .  S
C1021      N2585   1.349       .  A
C1021      C1035   1.459       .  S
C1021      C1372   1.473       .  S
C1022      H1026   1.081       .  S
C1022      C2601   1.467   1_455  S
N1023      C1034   1.341       .  A
N1023     Co1033   2.092       .  S
N1025      C2581   1.350   1_455  A
C1027      N1043   1.348       .  A
C1027      C2599   1.466       .  S
C1027      C1285   1.488       .  S
Co1029    Cl2600   2.456   1_455  S
N1030      C1041   1.356       .  A
C1031      N2562   1.352       .  A
C1031      C1273   1.485       .  S
Co1033    Cl1040   2.453       .  S
C1039      C2587   1.466       .  S
Cl1040    Co1776   2.445   1_565  S
Cl1040    Co2589   2.457       .  S
C1041      C2582   1.462       .  S
C1041      C1381   1.490       .  S
C1044      N1062   1.348       .  A
C1044      C2641   1.460       .  S
C1044      C1189   1.467       .  S
N1045      N1062   1.323       .  A
N1045      N2627   1.319       .  A
N1045     Co1082   2.076       .  S
C1046      N1071   1.340       .  A
C1046      H1091   1.081       .  S
C1046      C1084   1.461       .  S
H1047      C1088   1.079       .  S
C1048      N1072   1.337       .  A
C1048      H1077   1.081       .  S
C1048      C1052   1.461       .  S
Co1049     N1067   2.086       .  S
Co1049     N1057   2.085       .  S
Co1049     N1089   2.084       .  S
Co1049     N1065   2.082       .  S
Co1049    Cl1873   2.446   1_455  S
N1050      C1088   1.346       .  A
N1050     Co1051   2.102       .  S
Co1051     N1054   2.089       .  S
Co1051     N1071   2.077       .  S
Co1051     N1058   2.090       .  S
Co1051    Cl2653   2.457       .  S
C1052      N2650   1.354       .  A
C1052      C1177   1.480       .  S
N1053      N1083   1.327       .  A
N1053     Co1086   2.087       .  S
N1054      N2632   1.320   1_455  A
N1054      N1090   1.324       .  A
N1055      N1065   1.323       .  A
H1056      C1081   1.082       .  S
N1057      N1078   1.322       .  A
N1058      N2636   1.319   1_455  A
N1058      N1063   1.326       .  A
C1059      N2623   1.352       .  A
C1059      C1087   1.462       .  S
C1059      C1216   1.486       .  S
N1060      C1075   1.338       .  A
N1060     Co1082   2.080       .  S
C1061      N1089   1.340       .  A
C1061      H1095   1.081       .  S
C1061      C2624   1.467       .  S
N1063      C2619   1.351   1_455  A
C1064      N1085   1.350       .  A
C1064      C2621   1.467       .  S
C1064      C1201   1.490       .  S
N1066      C1092   1.337       .  A
N1066     Co1082   2.073       .  S
N1067      C1081   1.341       .  A
N1067      N2605   1.320   1_455  A
N1068      N1096   1.325       .  A
N1068     Co1086   2.084       .  S
H1069      C1092   1.081       .  S
H1070      C1087   1.081       .  S
N1072      N2614   1.320       .  A
N1072     Co1086   2.079       .  S
N1073      N1085   1.323       .  A
N1073      N2649   1.317       .  A
N1073     Co1082   2.078       .  S
C1074      C1088   1.476       .  S
C1074      C1528   1.500       .  S
C1075      H1079   1.082       .  S
N1076      C1087   1.340       .  A
N1076      N2618   1.319       .  A
N1076     Co1086   2.083       .  S
C1080      N1096   1.351       .  A
C1080      C1237   1.480       .  S
C1081      C2604   1.460   1_455  S
N1083      C1094   1.353       .  A
C1084      C1225   1.480       .  S
Co1086    Cl1093   2.449       .  S
N1089      N2633   1.317   1_455  A
N1090      C2612   1.353   1_455  A
Cl1093    Co1829   2.442   1_565  S
Cl1093    Co2611   2.458       .  S
C1094      C1513   1.484       .  S
N1097      C1102   1.355       .  A
N1097      C1101   1.353       .  A
N1097      H1129   1.037       .  S
N1098      C1105   1.351       .  A
N1098      C1106   1.353       .  A
N1099      C1104   1.352       .  A
N1099      C1103   1.353       .  A
N1099      H1130   1.038       .  S
N1100      C1107   1.351       .  A
N1100      C1108   1.352       .  A
C1101      C1109   1.387       .  A
C1101      C1117   1.416       .  A
C1102      C1118   1.417       .  A
C1102      C1110   1.387       .  A
C1103      C1111   1.386       .  A
C1103      C1120   1.413       .  A
C1104      C1119   1.415       .  A
C1104      C1112   1.388       .  A
C1105      C1117   1.415       .  A
C1105      C1113   1.388       .  A
C1106      C1120   1.412       .  A
C1106      C1114   1.385       .  A
C1107      C1115   1.387       .  A
C1107      C1118   1.414       .  A
C1108      C1116   1.386       .  A
C1108      C1119   1.413       .  A
C1109      C1110   1.379       .  A
C1109      H1121   1.082       .  S
C1110      H1122   1.082       .  S
C1111      C1112   1.374       .  A
C1111      H1123   1.082       .  S
C1112      H1124   1.082       .  S
C1113      C1114   1.371       .  A
C1113      H1125   1.082       .  S
C1114      H1126   1.082       .  S
C1115      C1116   1.371       .  A
C1115      H1127   1.082       .  S
C1116      H1128   1.082       .  S
C1117      C1288   1.485       .  S
C1118      C1213   1.490       .  S
C1119      C1204   1.484       .  S
C1120      C1276   1.491       .  S
N1131      C1136   1.352       .  A
N1131      C1135   1.351       .  A
N1131      H1163   1.040   1_565  S
N1132      C1139   1.351       .  A
N1132      C1140   1.350       .  A
N1133      C1138   1.352       .  A
N1133      C1137   1.352       .  A
N1133      H1164   1.040   1_565  S
N1134      C1141   1.350       .  A
N1134      C1142   1.350       .  A
C1135      C1143   1.387       .  A
C1135      C1151   1.413       .  A
C1136      C1152   1.413       .  A
C1136      C1144   1.386       .  A
C1137      C1145   1.387       .  A
C1137      C1154   1.412       .  A
C1138      C1153   1.412       .  A
C1138      C1146   1.387       .  A
C1139      C1151   1.412       .  A
C1139      C1147   1.387   1_565  A
C1140      C1154   1.411       .  A
C1140      C1148   1.386   1_565  A
C1141      C1149   1.387   1_565  A
C1141      C1152   1.411       .  A
C1142      C1150   1.386   1_565  A
C1142      C1153   1.411       .  A
C1143      C1144   1.378       .  A
C1143      H1155   1.082       .  S
C1144      H1156   1.082       .  S
C1145      C1146   1.376       .  A
C1145      H1157   1.082       .  S
C1146      H1158   1.082       .  S
C1147      C1148   1.371       .  A
C1147      H1159   1.082       .  S
C1148      H1160   1.082       .  S
C1149      C1150   1.370       .  A
C1149      H1161   1.082       .  S
C1150      H1162   1.082       .  S
C1151      C1252   1.483       .  S
C1152      C1228   1.483       .  S
C1153      C1240   1.485       .  S
C1154      C1264   1.483       .  S
C1165      C1166   1.531   1_655  S
C1165      C2731   1.532       .  S
C1165      C2729   1.537       .  S
C1165      C2752   1.540       .  S
C1166      H1173   1.083       .  S
C1166      C1167   1.375       .  D
C1167      C1168   1.557       .  S
C1167      C1300   1.526       .  S
C1168      C2732   1.543   1_455  S
C1168      C1170   1.548   1_455  S
C1168      H1174   1.093       .  S
C1169      C2725   1.537       .  S
C1169      H1175   1.081       .  S
C1169      C2730   1.363       .  D
C1170      C2729   1.362       .  D
C1170      C2740   1.478       .  S
C1171      C2725   1.531       .  S
C1171      H1176   1.086       .  S
C1171      C1172   1.370       .  D
C1172      C2728   1.544       .  S
C1172      C1312   1.507       .  S
C1177      C1178   1.405       .  A
C1177      C2742   1.413       .  A
C1178      C1179   1.395       .  A
C1178      H1187   1.082       .  S
C1179      C1180   1.413       .  A
C1179      S1183   1.807       .  S
C1180      C2730   1.475       .  S
C1180      C2741   1.398       .  A
C1181      C2740   1.398   1_455  A
C1181      C1182   1.398       .  A
C1181      H1188   1.080       .  S
C1182      C2737   1.415   1_455  A
C1182      S1184   1.799       .  S
S1183      H1186   1.401       .  S
S1184      H1185   1.407       .  S
C1189      C2750   1.395       .  A
C1189      C1194   1.407       .  A
C1190      C2749   1.395   1_455  A
C1190      C1191   1.403       .  A
C1190      H1199   1.083       .  S
C1191      C2752   1.427   1_455  A
C1191      S1195   1.812       .  S
C1192      C2725   1.538       .  S
C1192      C2751   1.427       .  A
C1192      C1193   1.412       .  A
C1193      C1194   1.398       .  A
C1193      H1200   1.075       .  S
C1194      S1196   1.805       .  S
S1195      H1198   1.407       .  S
S1196      H1197   1.405       .  S
C1201      C2762   1.408       .  A
C1201      C1206   1.420       .  A
C1202      C2761   1.407   1_455  A
C1202      C1203   1.396       .  A
C1202      H1211   1.081       .  S
C1203      C2764   1.409       .  A
C1203      S1207   1.806       .  S
C1204      C2763   1.410       .  A
C1204      C1205   1.399       .  A
C1205      C1206   1.397       .  A
C1205      H1212   1.084       .  S
C1206      S1208   1.799       .  S
S1207      H1210   1.404       .  S
S1208      H1209   1.407       .  S
C1213      C1214   1.402       .  A
C1213      C2778   1.413       .  A
C1214      C1215   1.398       .  A
C1214      H1223   1.084       .  S
C1215      C1216   1.416       .  A
C1215      S1219   1.802       .  S
C1216      C2777   1.407       .  A
C1217      C2776   1.405       .  A
C1217      C1218   1.402       .  A
C1217      H1224   1.084       .  S
C1218      C2773   1.414       .  A
C1218      S1220   1.804       .  S
S1219      H1222   1.407       .  S
S1220      H1221   1.405       .  S
C1225      C1230   1.416       .  A
C1226      C1227   1.399       .  A
C1226      H1235   1.084       .  S
C1227      S1231   1.805       .  S
C1228      C1229   1.401       .  A
C1229      C1230   1.397       .  A
C1229      H1236   1.084       .  S
C1230      S1232   1.801       .  S
S1231      H1234   1.405       .  S
S1232      H1233   1.407       .  S
C1237      C1242   1.415       .  A
C1238      C1239   1.397       .  A
C1238      H1247   1.081       .  S
C1239      S1243   1.805       .  S
C1240      C1241   1.403       .  A
C1241      C1242   1.398       .  A
C1241      H1248   1.084       .  S
C1242      S1244   1.801       .  S
S1243      H1246   1.405       .  S
S1244      H1245   1.408       .  S
C1249      C1254   1.421       .  A
C1250      C1251   1.393       .  A
C1250      H1259   1.079       .  S
C1251      S1255   1.805       .  S
C1252      C1253   1.401       .  A
C1253      C1254   1.407       .  A
C1253      H1260   1.083       .  S
C1254      S1256   1.808       .  S
S1255      H1258   1.405       .  S
S1256      H1257   1.407       .  S
C1261      C1266   1.417       .  A
C1262      C1263   1.397       .  A
C1262      H1271   1.084       .  S
C1263      S1267   1.805       .  S
C1264      C1265   1.400       .  A
C1265      C1266   1.397       .  A
C1265      H1272   1.084       .  S
C1266      S1268   1.799       .  S
S1267      H1270   1.405       .  S
S1268      H1269   1.407       .  S
C1273      C1274   1.407       .  A
C1273      C1278   1.416       .  A
C1274      C1275   1.404       .  A
C1274      H1283   1.082       .  S
C1275      C1276   1.409       .  A
C1275      S1279   1.807       .  S
C1276      C1277   1.402       .  A
C1277      C1278   1.401       .  A
C1277      H1284   1.084       .  S
C1278      S1280   1.802       .  S
S1279      H1282   1.406       .  S
S1280      H1281   1.407       .  S
C1285      C2846   1.406       .  A
C1285      C1290   1.420       .  A
C1286      C2845   1.408       .  A
C1286      C1287   1.398       .  A
C1286      H1295   1.081       .  S
C1287      C2848   1.409       .  A
C1287      S1291   1.805       .  S
C1288      C2847   1.410       .  A
C1288      C1289   1.401       .  A
C1289      C1290   1.404       .  A
C1289      H1296   1.083       .  S
C1290      S1292   1.810       .  S
S1291      H1294   1.403       .  S
S1292      H1293   1.407       .  S
C1297      C1298   1.403       .  A
C1297      C1302   1.412       .  A
C1298      C1299   1.411       .  A
C1298      H1307   1.082       .  S
C1299      C1300   1.429       .  A
C1299      S1303   1.804       .  S
C1300      C1301   1.415       .  A
C1301      C1302   1.396       .  A
C1301      H1308   1.079       .  S
C1302      S1304   1.804       .  S
S1303      H1306   1.406       .  S
S1304      H1305   1.408       .  S
C1309      C1310   1.404       .  A
C1309      C1314   1.419       .  A
C1310      C1311   1.409       .  A
C1310      H1319   1.080       .  S
C1311      C1312   1.425       .  A
C1311      S1315   1.807       .  S
C1312      C1313   1.405       .  A
C1313      C1314   1.394       .  A
C1313      H1320   1.084       .  S
C1314      S1316   1.803       .  S
S1315      H1318   1.406       .  S
S1316      H1317   1.408       .  S
C1321      C1322   1.403       .  A
C1321      C1326   1.416       .  A
C1322      C1323   1.396       .  A
C1322      H1331   1.083       .  S
C1323      C1324   1.411       .  A
C1323      S1327   1.805       .  S
C1324      C1325   1.402       .  A
C1325      C1326   1.397       .  A
C1325      H1332   1.084       .  S
C1326      S1328   1.801       .  S
S1327      H1330   1.405       .  S
S1328      H1329   1.407       .  S
C1333      C1334   1.405       .  A
C1333      C1338   1.419       .  A
C1334      C1335   1.404       .  A
C1334      H1343   1.084       .  S
C1335      C1336   1.417       .  A
C1335      S1339   1.804       .  S
C1336      C1337   1.405       .  A
C1337      C1338   1.406       .  A
C1337      H1344   1.084       .  S
C1338      S1340   1.803       .  S
S1339      H1342   1.406       .  S
S1340      H1341   1.407       .  S
C1345      C1346   1.407       .  A
C1345      C1350   1.416       .  A
C1346      C1347   1.403       .  A
C1346      H1355   1.083       .  S
C1347      C1348   1.413       .  A
C1347      S1351   1.804       .  S
C1348      C1349   1.402       .  A
C1349      C1350   1.401       .  A
C1349      H1356   1.084       .  S
C1350      S1352   1.802       .  S
S1351      H1354   1.405       .  S
S1352      H1353   1.407       .  S
C1357      C1358   1.402       .  A
C1357      C1362   1.411       .  A
C1358      C1359   1.396       .  A
C1358      H1367   1.084       .  S
C1359      C1360   1.416       .  A
C1359      S1363   1.802       .  S
C1360      C1361   1.405       .  A
C1361      C1362   1.398       .  A
C1361      H1368   1.083       .  S
C1362      S1364   1.804       .  S
S1363      H1366   1.408       .  S
S1364      H1365   1.405       .  S
C1369      C2399   1.542       .  S
C1369      C2930   1.414       .  A
C1369      C1374   1.425       .  A
C1370      C2929   1.415   1_455  A
C1370      C1371   1.402       .  A
C1370      H1379   1.070       .  S
C1371      C2932   1.407   1_455  A
C1371      S1375   1.811       .  S
C1372      C2931   1.403       .  A
C1372      C1373   1.400       .  A
C1373      C1374   1.405       .  A
C1373      H1380   1.082       .  S
C1374      S1376   1.811       .  S
S1375      H1378   1.406       .  S
S1376      H1377   1.406       .  S
C1381      C2942   1.407       .  A
C1381      C1386   1.415       .  A
C1382      C2941   1.407   1_455  A
C1382      C1383   1.400       .  A
C1382      H1391   1.082       .  S
C1383      C2944   1.412       .  A
C1383      S1387   1.805       .  S
C1384      C2406   1.488       .  S
C1384      C2943   1.413       .  A
C1384      C1385   1.404       .  A
C1385      C1386   1.405       .  A
C1385      H1392   1.083       .  S
C1386      S1388   1.802       .  S
S1387      H1390   1.403       .  S
S1388      H1389   1.406       .  S
C1393      C1394   1.405       .  A
C1393      C1398   1.419       .  A
C1394      C1395   1.400       .  A
C1394      H1403   1.083       .  S
C1395      C1396   1.416       .  A
C1395      S1399   1.806       .  S
C1396      C1397   1.404       .  A
C1397      C1398   1.408       .  A
C1397      H1404   1.084       .  S
C1398      S1400   1.802       .  S
S1399      H1402   1.405       .  S
S1400      H1401   1.407       .  S
C1405      C1406   1.403       .  A
C1405      C1410   1.417       .  A
C1406      C1407   1.404       .  A
C1406      H1415   1.083       .  S
C1407      C1408   1.414       .  A
C1407      S1411   1.803       .  S
C1408      C1409   1.400       .  A
C1409      C1410   1.402       .  A
C1409      H1416   1.084       .  S
C1410      S1412   1.807       .  S
S1411      H1414   1.406       .  S
S1412      H1413   1.398       .  S
C1417      C1418   1.409       .  A
C1418      C1419   1.413       .  A
C1418      H1427   1.080       .  S
C1419      C1420   1.417   1_565  A
C1419      S1423   1.803       .  S
C1421      C1422   1.393       .  A
C1421      H1428   1.084       .  S
C1422      S1424   1.802       .  S
S1423      H1426   1.406       .  S
S1424      H1425   1.408       .  S
C1429      C1430   1.403   1_545  A
C1430      C1431   1.403       .  A
C1430      H1439   1.082       .  S
C1431      C1432   1.415       .  A
C1431      S1435   1.803       .  S
C1433      C1434   1.398       .  A
C1433      H1440   1.082       .  S
C1434      S1436   1.805       .  S
S1435      H1438   1.407       .  S
S1436      H1437   1.407       .  S
C1441      C1442   1.402       .  A
C1441      C1446   1.408       .  A
C1442      C1443   1.405       .  A
C1442      H1451   1.082       .  S
C1443      C1444   1.423       .  A
C1443      S1447   1.811       .  S
C1444      C1445   1.414       .  A
C1445      C1446   1.396       .  A
C1445      H1452   1.076       .  S
C1446      S1448   1.805       .  S
S1447      H1450   1.406       .  S
S1448      H1449   1.407       .  S
C1453      C1454   1.398       .  A
C1453      C1458   1.414       .  A
C1454      C1455   1.399       .  A
C1454      H1463   1.083       .  S
C1455      C1456   1.419       .  A
C1455      S1459   1.802       .  S
C1456      C1457   1.408       .  A
C1457      C1458   1.403       .  A
C1457      H1464   1.081       .  S
C1458      S1460   1.808       .  S
S1459      H1462   1.408       .  S
S1460      H1461   1.399       .  S
C1465      C1466   1.406       .  A
C1465      C1470   1.417       .  A
C1466      C1467   1.398       .  A
C1466      H1475   1.084       .  S
C1467      C1468   1.412       .  A
C1467      S1471   1.805       .  S
C1468      C1469   1.400       .  A
C1469      C1470   1.398       .  A
C1469      H1476   1.084       .  S
C1470      S1472   1.801       .  S
S1471      H1474   1.405       .  S
S1472      H1473   1.407       .  S
C1477      C1478   1.406       .  A
C1477      C1482   1.417       .  A
C1478      C1479   1.397       .  A
C1478      H1487   1.083       .  S
C1479      C1480   1.411       .  A
C1479      S1483   1.805       .  S
C1480      C1481   1.400       .  A
C1481      C1482   1.403       .  A
C1481      H1488   1.083       .  S
C1482      S1484   1.808       .  S
S1483      H1486   1.405       .  S
S1484      H1485   1.406       .  S
C1489      C1490   1.408       .  A
C1489      C1494   1.422       .  A
C1490      C1491   1.399       .  A
C1490      H1499   1.081       .  S
C1491      C1492   1.409       .  A
C1491      S1495   1.804       .  S
C1492      C1493   1.400       .  A
C1493      C1494   1.402       .  A
C1493      H1500   1.084       .  S
C1494      S1496   1.800       .  S
S1495      H1498   1.404       .  S
S1496      H1497   1.407       .  S
C1501      C1502   1.404       .  A
C1501      C1506   1.413       .  A
C1502      C1503   1.398       .  A
C1502      H1511   1.084       .  S
C1503      C1504   1.415       .  A
C1503      S1507   1.803       .  S
C1504      C1505   1.405       .  A
C1505      C1506   1.402       .  A
C1505      H1512   1.084       .  S
C1506      S1508   1.804       .  S
S1507      H1510   1.407       .  S
S1508      H1509   1.405       .  S
C1513      C1518   1.416       .  A
C1514      C1515   1.395       .  A
C1514      H1523   1.083       .  S
C1515      S1519   1.798       .  S
C1516      C1517   1.404   1_545  A
C1517      C1518   1.407       .  A
C1517      H1524   1.081       .  S
C1518      S1520   1.803       .  S
S1519      H1522   1.402       .  S
S1520      H1521   1.406       .  S
C1525      C1526   1.403   1_545  A
C1526      C1527   1.408       .  A
C1526      H1535   1.083       .  S
C1527      C1528   1.418       .  A
C1527      S1531   1.801       .  S
C1529      C1530   1.402       .  A
C1529      H1536   1.081       .  S
C1530      S1532   1.808       .  S
S1531      H1534   1.407       .  S
S1532      H1533   1.406       .  S
C1537      C1538   1.416       .  A
C1537      C1542   1.426       .  A
C1538      C1539   1.399       .  A
C1538      H1547   1.074       .  S
C1539      C1540   1.406       .  A
C1539      S1543   1.806       .  S
C1540      C1541   1.394       .  A
C1541      C1542   1.404       .  A
C1541      H1548   1.083       .  S
C1542      S1544   1.807       .  S
S1543      H1546   1.405       .  S
S1544      H1545   1.406       .  S
C1549      C1550   1.402       .  A
C1549      C1554   1.415       .  A
C1550      C1551   1.405       .  A
C1550      H1559   1.081       .  S
C1551      C1552   1.416       .  A
C1551      S1555   1.803       .  S
C1552      C1553   1.405       .  A
C1553      C1554   1.399       .  A
C1553      H1560   1.083       .  S
C1554      S1556   1.806       .  S
S1555      H1558   1.407       .  S
S1556      H1557   1.403       .  S
C1561      C1562   1.536       .  S
C1561      C1567   1.541       .  S
C1561      C1565   1.546       .  S
C1561      C2317   1.550       .  S
C1562      H1569   1.086       .  S
C1562      C2343   1.365       .  D
C1563      C1564   1.543       .  S
C1563      C2342   1.365       .  D
C1563      C2296   1.487       .  S
C1564      C1568   1.547       .  S
C1564      C1566   1.539       .  S
C1564      H1570   1.111       .  S
C1565      H2351   1.079   1_545  S
C1565      C2346   1.363   1_545  D
C1566      C2345   1.363       .  D
C1566      C2329   1.484       .  S
C1567      H1572   1.085       .  S
C1567      C2348   1.372       .  D
C1568      C2347   1.370       .  D
C1568      C2305   1.496       .  S
H1571      C2345   1.080       .  S
N1573      C1578   1.351       .  A
N1573      C1577   1.352   1_554  A
N1573      H1605   1.039       .  S
N1574      C1582   1.352       .  A
N1575      C1580   1.352       .  A
N1575      C1579   1.352   1_554  A
N1575      H1606   1.040       .  S
N1576      C1584   1.352       .  A
C1577      C1585   1.386       .  A
C1577      C1593   1.412       .  A
C1578      C1594   1.413       .  A
C1578      C1586   1.387       .  A
C1579      C1587   1.386       .  A
C1579      C1596   1.413       .  A
C1580      C1595   1.414       .  A
C1580      C1588   1.387       .  A
C1581      C1593   1.410       .  A
C1581      C1589   1.387       .  A
C1582      C1596   1.412       .  A
C1582      C1590   1.386       .  A
C1583      C1591   1.386       .  A
C1583      C1594   1.412       .  A
C1584      C1592   1.386       .  A
C1584      C1595   1.412       .  A
C1585      C1586   1.378   1_556  A
C1585      H1597   1.082       .  S
C1586      H1598   1.082       .  S
C1587      C1588   1.375   1_556  A
C1587      H1599   1.082       .  S
C1588      H1600   1.082       .  S
C1589      H1601   1.082       .  S
C1590      H1602   1.082       .  S
C1591      H1603   1.082       .  S
C1592      H1604   1.082       .  S
C1593      C2281   1.482       .  S
C1594      C2260   1.484       .  S
C1595      C2248   1.487       .  S
C1596      C2272   1.484       .  S
C1607      C1608   1.535       .  S
C1607      C1613   1.535       .  S
C1607      C1611   1.542       .  S
C1607      C2224   1.539       .  S
C1608      H2395   1.086       .  S
C1608      C2389   1.364   1_545  D
C1609      C1610   1.549       .  S
C1609      C2388   1.364       .  D
C1609      C2233   1.478       .  S
C1610      C1614   1.543       .  S
C1610      C1612   1.548       .  S
C1610      H1616   1.109       .  S
C1611      H1617   1.081       .  S
C1611      C2392   1.366       .  D
C1612      C2391   1.367       .  D
C1612      C2200   1.501       .  S
C1613      H1618   1.086       .  S
C1613      C2394   1.366       .  D
C1614      C2393   1.366       .  D
C1614      C2209   1.491       .  S
H1615      C2388   1.086       .  S
C1619      C1620   1.545       .  S
C1619      C1625   1.536       .  S
C1620      H1627   1.080       .  S
C1620      C1621   1.363       .  D
C1621      C1622   1.543       .  S
C1621      C2176   1.491       .  S
C1622      C1626   1.544       .  S
C1622      H1628   1.111       .  S
C1623      H1629   1.086       .  S
C1623      C1624   1.366       .  D
C1624      C2185   1.490       .  S
C1625      H1630   1.086       .  S
C1625      C1626   1.367       .  D
N1631      C1636   1.351   1_554  A
N1631      C1635   1.356       .  A
N1631      H1663   1.038       .  S
N1632      C2419   1.353   1_545  A
N1632      C1640   1.351       .  A
N1633      C1638   1.353   1_554  A
N1633      C1637   1.350       .  A
N1633      H1664   1.039       .  S
N1634      C2421   1.351   1_545  A
N1634      C1642   1.354       .  A
C1635      C1643   1.386       .  A
C1635      C1651   1.416       .  A
C1636      C1652   1.415       .  A
C1636      C1644   1.388       .  A
C1637      C1645   1.388       .  A
C1637      C1654   1.413       .  A
C1638      C1653   1.412       .  A
C1638      C1646   1.386       .  A
C1639      N2412   1.352       .  A
C1639      C1651   1.412       .  A
C1639      C1647   1.385       .  A
C1640      C1654   1.414       .  A
C1640      C1648   1.387       .  A
C1641      N2414   1.350       .  A
C1641      C1649   1.388       .  A
C1641      C1652   1.415       .  A
C1642      C1650   1.384       .  A
C1642      C1653   1.412       .  A
C1643      C1644   1.378   1_554  A
C1643      H1655   1.082       .  S
C1644      H1656   1.082       .  S
C1645      C1646   1.376   1_554  A
C1645      H1657   1.082       .  S
C1646      H1658   1.082       .  S
C1647      C2428   1.372       .  A
C1647      H1659   1.082       .  S
C1648      C2427   1.373   1_545  A
C1648      H1660   1.082       .  S
C1649      C2430   1.373       .  A
C1649      H1661   1.082       .  S
C1650      C2429   1.371   1_545  A
C1650      H1662   1.082       .  S
C1651      C2116   1.495       .  S
C1652      C2137   1.480       .  S
C1653      C2128   1.491       .  S
C1654      C2104   1.482       .  S
C1665      N1683   1.351       .  A
C1665      C1702   1.457       .  S
C1665      C2284   1.473       .  S
N1666      N1683   1.324       .  A
N1666      N1688   1.319       .  A
N1666     Co1703   2.081       .  S
C1667      N1692   1.342       .  A
C1667      H1712   1.081       .  S
C1667      C1705   1.471       .  S
H1668      C1709   1.081       .  S
C1669      N1693   1.339       .  A
C1669      H1698   1.080       .  S
C1669      C1673   1.466       .  S
Co1670     N1688   2.074       .  S
Co1670     N1678   2.079       .  S
Co1670     N1710   2.090       .  S
Co1670     N1686   2.080       .  S
Co1670    Cl1714   2.445       .  S
N1671      C1709   1.339       .  A
N1671      N1678   1.318       .  A
N1671     Co1672   2.074       .  S
Co1672     N1675   2.089       .  S
Co1672     N1692   2.092       .  S
Co1672     N1679   2.087       .  S
Co1672    Cl1714   2.456       .  S
C1673      N1711   1.351       .  A
C1673      C2269   1.492       .  S
N1674      N1681   1.320       .  A
N1674      N1704   1.326       .  A
N1674     Co1707   2.092       .  S
N1675      N1693   1.318       .  A
N1675      N1711   1.324       .  A
N1676      C1705   1.350       .  A
N1676      N1686   1.322       .  A
H1677      C1702   1.081       .  S
N1678      N1699   1.323       .  A
N1679      N1697   1.320       .  A
N1679      N1684   1.327       .  A
C1680      N1684   1.352       .  A
C1680      C1708   1.468       .  S
C1680      C2173   1.493       .  S
N1681      C1696   1.342       .  A
N1681     Co1703   2.090       .  S
C1682      N1710   1.343       .  A
C1682      H1716   1.081       .  S
C1682      C1685   1.460       .  S
C1685      N1706   1.352       .  A
C1685      C2188   1.480       .  S
N1686      N1692   1.319       .  A
N1687      C1713   1.338       .  A
N1687      N1689   1.321       .  A
N1687     Co1703   2.082       .  S
N1688      C1702   1.337       .  A
N1689      N1717   1.322       .  A
N1689     Co1707   2.080       .  S
H1690      C1713   1.081       .  S
H1691      C1708   1.081       .  S
N1693     Co1707   2.080       .  S
N1694      N1706   1.327       .  A
N1694      N1710   1.321       .  A
N1694     Co1703   2.100       .  S
C1695      N1699   1.349       .  A
C1695      C1709   1.459       .  S
C1695      C2140   1.481       .  S
C1696      H1700   1.081       .  S
C1696      C1715   1.464       .  S
N1697      C1708   1.343       .  A
N1697     Co1707   2.099       .  S
C1701      N1717   1.349       .  A
C1701      C1713   1.462       .  S
C1701      C2221   1.475       .  S
Co1703    Cl1714   2.458       .  S
N1704      C1715   1.352       .  A
C1705      C2236   1.491       .  S
Co1707    Cl1714   2.448       .  S
C1715      C2125   1.489       .  S
C1718      N1736   1.345       .  A
C1718      C1755   1.475       .  S
C1718      C2089   1.496       .  S
N1719      N1736   1.319       .  A
N1719      N1741   1.319       .  A
N1719     Co1756   2.070       .  S
C1720      N1745   1.341       .  A
C1720      H1765   1.080       .  S
C1720      C1758   1.464       .  S
H1721      C1762   1.082       .  S
C1722      N1746   1.335       .  A
C1722      H1751   1.077       .  S
C1722      C1726   1.466       .  S
Co1723     N1741   2.103       .  S
Co1723     N1731   2.095       .  S
Co1723     N1763   2.081       .  S
Co1723     N1739   2.097       .  S
Co1723    Cl1767   2.459       .  S
N1724      C1762   1.339       .  A
N1724      N1731   1.321       .  A
N1724     Co1725   2.089       .  S
Co1725     N1728   2.103       .  S
Co1725     N1745   2.087       .  S
Co1725     N1732   2.097       .  S
Co1725    Cl1767   2.450       .  S
C1726      N1764   1.359       .  A
C1726      C2077   1.500       .  S
N1727      N1734   1.321       .  A
N1727      N1757   1.324       .  A
N1727     Co1760   2.083       .  S
N1728      N1746   1.317       .  A
N1728      N1764   1.327       .  A
N1729      C1758   1.354       .  A
N1729      N1739   1.327       .  A
H1730      C1755   1.081       .  S
N1731      N1752   1.326       .  A
N1732      N1750   1.318       .  A
N1732      N1737   1.326       .  A
C1733      N1737   1.355       .  A
C1733      C1761   1.462       .  S
C1733      C2245   1.487       .  S
N1734      C1749   1.343       .  A
N1734     Co1756   2.093       .  S
C1735      N1763   1.341       .  A
C1735      H1769   1.081       .  S
C1735      C1738   1.461       .  S
C1738      N1759   1.350       .  A
C1738      C2257   1.481       .  S
N1739      N1745   1.319       .  A
N1740      C1766   1.338       .  A
N1740      N1742   1.317       .  A
N1740     Co1756   2.069       .  S
N1741      C1755   1.347       .  A
N1742      N1770   1.322       .  A
N1742     Co1760   2.075       .  S
H1743      C1766   1.081       .  S
H1744      C1761   1.080       .  S
N1746     Co1760   2.070       .  S
N1747      N1759   1.323       .  A
N1747      N1763   1.319       .  A
N1747     Co1756   2.084       .  S
C1748      N1752   1.353       .  A
C1748      C1762   1.464       .  S
C1748      C2332   1.485       .  S
C1749      H1753   1.081       .  S
C1749      C1768   1.460       .  S
N1750      C1761   1.337       .  A
N1750     Co1760   2.072       .  S
C1754      N1770   1.349       .  A
C1754      C1766   1.458       .  S
C1754      C2101   1.471       .  S
Co1756    Cl1767   2.443       .  S
N1757      C1768   1.348       .  A
C1758      C2113   1.493       .  S
Co1760    Cl1767   2.454       .  S
C1768      C2320   1.473       .  S
C1771      N1789   1.354       .  A
C1771      C2588   1.466       .  S
C1771      C2212   1.491       .  S
N1772      N1789   1.327       .  A
N1772      N2574   1.319       .  A
N1772     Co1809   2.092       .  S
C1773      N1798   1.341       .  A
C1773      H1818   1.081       .  S
C1773      C1811   1.462       .  S
H1774      C1815   1.082       .  S
C1775      N1799   1.345       .  A
C1775      H1804   1.081       .  S
C1775      C1779   1.472       .  S
Co1776     N1794   2.082       .  S
Co1776     N1784   2.084       .  S
Co1776     N1816   2.076       .  S
Co1776     N1792   2.080       .  S
N1777      C1815   1.342       .  A
N1777     Co1778   2.087       .  S
Co1778     N1781   2.087       .  S
Co1778     N1798   2.085       .  S
Co1778     N1785   2.073   1_545  S
Co1778    Cl2600   2.455   1_545  S
C1779      N2597   1.347       .  A
C1779      C2197   1.495       .  S
N1780      N1810   1.327       .  A
N1780     Co1813   2.093       .  S
N1781      N2579   1.320   1_545  A
N1781      N1817   1.323       .  A
N1782      N1792   1.324       .  A
H1783      C1808   1.081       .  S
N1784      N1805   1.323       .  A
N1785      N2583   1.319       .  A
N1785      N1790   1.322   1_565  A
C1786      N2570   1.349       .  A
C1786      C1814   1.460       .  S
C1786      C2041   1.475       .  S
N1787      C1802   1.338       .  A
N1787     Co1809   2.085       .  S
C1788      N1816   1.335       .  A
C1788      H1822   1.080       .  S
C1788      C2571   1.463   1_545  S
N1790      C2566   1.348   1_545  A
C1791      N1812   1.353       .  A
C1791      C2568   1.463       .  S
C1791      C2029   1.491       .  S
N1793      C1819   1.341       .  A
N1793     Co1809   2.088       .  S
N1794      C1808   1.338       .  A
N1794      N2552   1.320   1_545  A
N1795      N1823   1.324       .  A
N1795     Co1813   2.083       .  S
H1796      C1819   1.081       .  S
H1797      C1814   1.080       .  S
N1799      N2561   1.319       .  A
N1799     Co1813   2.097       .  S
N1800      N1812   1.325       .  A
N1800      N2596   1.318       .  A
N1800     Co1809   2.088       .  S
C1801      C1815   1.463       .  S
C1801      C2152   1.479       .  S
C1802      H1806   1.082       .  S
N1803      C1814   1.338       .  A
N1803      N2565   1.318       .  A
N1803     Co1813   2.080       .  S
C1807      N1823   1.350   1_455  A
C1807      C2065   1.493       .  S
C1808      C2551   1.463   1_545  S
N1810      C1821   1.354   1_655  A
C1811      C2053   1.481       .  S
Co1813    Cl1820   2.453       .  S
N1816      N2580   1.317   1_545  A
N1817      C2559   1.350   1_545  A
Cl1820    Co2558   2.451       .  S
C1821      C2161   1.490       .  S
C1824      N1842   1.349   1_455  A
C1824      C1969   1.471       .  S
N1825      N1842   1.324       .  A
N1825     Co1862   2.081       .  S
C1826      N1851   1.340       .  A
C1826      H1871   1.081       .  S
C1826      C1864   1.460       .  S
H1827      C1868   1.079       .  S
C1828      N1852   1.337       .  A
C1828      H1857   1.081       .  S
C1828      C1832   1.462       .  S
Co1829     N1847   2.087       .  S
Co1829     N1837   2.087       .  S
Co1829     N1869   2.083       .  S
Co1829     N1845   2.079   1_545  S
N1830      C1868   1.347       .  A
N1830      N2617   1.318       .  A
N1830     Co1831   2.104       .  S
Co1831     N1834   2.085       .  S
Co1831     N1851   2.076       .  S
Co1831     N1838   2.096       .  S
C1832      C1957   1.480       .  S
N1833      N2620   1.318       .  A
N1833      N1863   1.326       .  A
N1833     Co1866   2.085       .  S
N1834      N1870   1.323       .  A
N1835      C2644   1.347   1_545  A
N1835      N1845   1.323   1_545  A
H1836      C1861   1.082       .  S
N1837      N2610   1.318   1_545  A
N1837      N1858   1.323       .  A
N1838      N1843   1.327       .  A
C1839      C1867   1.459       .  S
C1839      C1996   1.476       .  S
N1840      C1855   1.339       .  A
N1840      N2613   1.319   1_545  A
N1840     Co1862   2.082       .  S
C1841      N1869   1.339       .  A
C1841      H1875   1.080       .  S
C1844      N1865   1.348   1_455  A
C1844      C1981   1.486       .  S
N1845      N2631   1.320       .  A
N1846      C1872   1.338       .  A
N1846      N2628   1.318   1_545  A
N1846     Co1862   2.078       .  S
N1847      C1861   1.341       .  A
N1848      N2626   1.319       .  A
N1848      N1876   1.326       .  A
N1848     Co1866   2.086       .  S
H1849      C1872   1.081       .  S
H1850      C1867   1.081       .  S
N1851      N2625   1.319       .  A
N1852     Co1866   2.079       .  S
N1853      N1865   1.321       .  A
N1853     Co1862   2.073       .  S
C1854      N2638   1.352       .  A
C1854      C1868   1.478       .  S
C1854      C2308   1.504       .  S
C1855      H1859   1.081       .  S
C1855      C2654   1.465   1_545  S
N1856      C1867   1.340       .  A
N1856     Co1866   2.079       .  S
N1858      C2634   1.353   1_545  A
C1860      N1876   1.352       .  A
C1860      C2652   1.457       .  S
C1860      C2017   1.480       .  S
Co1862    Cl2653   2.452   1_645  S
N1863      C1874   1.353       .  A
C1864      N2615   1.348       .  A
C1864      C2005   1.473       .  S
Co1866    Cl1873   2.452       .  S
C1872      C2640   1.459   1_545  S
Cl1873    Co2642   2.447       .  S
C1874      C2635   1.462       .  S
C1874      C2293   1.483       .  S
N1877      C1882   1.353   1_455  A
N1877      C1881   1.352   1_455  A
N1877      H1909   1.040       .  S
N1878      C1885   1.350       .  A
N1878      C1886   1.351       .  A
N1879      C1884   1.350   1_455  A
N1879      C1883   1.351   1_455  A
N1879      H1910   1.040       .  S
N1880      C1887   1.350       .  A
N1880      C1888   1.350       .  A
C1881      C1889   1.387       .  A
C1881      C1897   1.414   1_655  A
C1882      C1898   1.415   1_655  A
C1882      C1890   1.387       .  A
C1883      C1891   1.386       .  A
C1883      C1900   1.411   1_655  A
C1884      C1899   1.411   1_655  A
C1884      C1892   1.388       .  A
C1885      C1897   1.413       .  A
C1885      C1893   1.387       .  A
C1886      C1900   1.411       .  A
C1886      C1894   1.385       .  A
C1887      C1895   1.387       .  A
C1887      C1898   1.412       .  A
C1888      C1896   1.386       .  A
C1888      C1899   1.410       .  A
C1889      C1890   1.378       .  A
C1889      H1901   1.082       .  S
C1890      H1902   1.082       .  S
C1891      C1892   1.373       .  A
C1891      H1903   1.082       .  S
C1892      H1904   1.082       .  S
C1893      C1894   1.373       .  A
C1893      H1905   1.082       .  S
C1894      H1906   1.082       .  S
C1895      C1896   1.372       .  A
C1895      H1907   1.082       .  S
C1896      H1908   1.082       .  S
C1897      C2068   1.484       .  S
C1898      C1993   1.488       .  S
C1899      C1984   1.478       .  S
C1900      C2056   1.487       .  S
N1911      C1916   1.351       .  A
N1911      C1915   1.352       .  A
N1911      H1943   1.036       .  S
N1912      C1919   1.351       .  A
N1912      C1920   1.349       .  A
N1913      C1918   1.352       .  A
N1913      C1917   1.350       .  A
N1913      H1944   1.039       .  S
N1914      C1921   1.349       .  A
N1914      C1922   1.351       .  A
C1915      C1923   1.386       .  A
C1915      C1931   1.412       .  A
C1916      C1932   1.412       .  A
C1916      C1924   1.387       .  A
C1917      C1925   1.387       .  A
C1917      C1934   1.409       .  A
C1918      C1933   1.411       .  A
C1918      C1926   1.386       .  A
C1919      C1931   1.411       .  A
C1919      C1927   1.386       .  A
C1920      C1934   1.411       .  A
C1920      C1928   1.387       .  A
C1921      C1929   1.387       .  A
C1921      C1932   1.413       .  A
C1922      C1930   1.385       .  A
C1922      C1933   1.411       .  A
C1923      C1924   1.376       .  A
C1923      H1935   1.082       .  S
C1924      H1936   1.082       .  S
C1925      C1926   1.374       .  A
C1925      H1937   1.082       .  S
C1926      H1938   1.082       .  S
C1927      C1928   1.371       .  A
C1927      H1939   1.082       .  S
C1928      H1940   1.082       .  S
C1929      C1930   1.371       .  A
C1929      H1941   1.082       .  S
C1930      H1942   1.082       .  S
C1931      C2032   1.482       .  S
C1932      C2008   1.480       .  S
C1933      C2020   1.487       .  S
C1934      C2044   1.478       .  S
C1945      C1946   1.531       .  S
C1946      H1953   1.085       .  S
C1946      C1947   1.372       .  D
C1947      C1948   1.553       .  S
C1947      C2080   1.517       .  S
C1948      C1950   1.548       .  S
C1948      H1954   1.098       .  S
C1949      H1955   1.080       .  S
C1951      H1956   1.086       .  S
C1951      C1952   1.369       .  D
C1952      C2092   1.503       .  S
C1957      C1958   1.405       .  A
C1958      C1959   1.395       .  A
C1958      H1967   1.082       .  S
C1959      C1960   1.414       .  A
C1959      S1963   1.808       .  S
C1961      C1962   1.398       .  A
C1961      H1968   1.080       .  S
C1962      S1964   1.800       .  S
S1963      H1966   1.401       .  S
S1964      H1965   1.407       .  S
C1969      C1974   1.407   1_455  A
C1970      C1971   1.402       .  A
C1970      H1979   1.083       .  S
C1971      S1975   1.813       .  S
C1972      C1973   1.414   1_455  A
C1973      C1974   1.399       .  A
C1973      H1980   1.074       .  S
C1974      S1976   1.805       .  S
S1975      H1978   1.406       .  S
S1976      H1977   1.405   1_655  S
C1981      C1986   1.420   1_455  A
C1982      C1983   1.397       .  A
C1982      H1991   1.081       .  S
C1983      S1987   1.806       .  S
C1984      C1985   1.398   1_455  A
C1985      C1986   1.395       .  A
C1985      H1992   1.084       .  S
C1986      S1988   1.800       .  S
S1987      H1990   1.404       .  S
S1988      H1989   1.407       .  S
C1993      C1994   1.403   1_455  A
C1994      C1995   1.397       .  A
C1994      H2003   1.084       .  S
C1995      C1996   1.413       .  A
C1995      S1999   1.803       .  S
C1997      C1998   1.404       .  A
C1997      H2004   1.084       .  S
C1998      S2000   1.804       .  S
S1999      H2002   1.407       .  S
S2000      H2001   1.406       .  S
C2005      C2786   1.405       .  A
C2005      C2010   1.413       .  A
C2006      C2785   1.404   1_545  A
C2006      C2007   1.399       .  A
C2006      H2015   1.084       .  S
C2007      C2788   1.412   1_545  A
C2007      S2011   1.805       .  S
C2008      C2787   1.411       .  A
C2008      C2009   1.401       .  A
C2009      C2010   1.395       .  A
C2009      H2016   1.084       .  S
C2010      S2012   1.801       .  S
S2011      H2014   1.405       .  S
S2012      H2013   1.407       .  S
C2017      C2798   1.405       .  A
C2017      C2022   1.414       .  A
C2018      C2797   1.407   1_545  A
C2018      C2019   1.397       .  A
C2018      H2027   1.082       .  S
C2019      C2800   1.410   1_545  A
C2019      S2023   1.805       .  S
C2020      C2799   1.412       .  A
C2020      C2021   1.403       .  A
C2021      C2022   1.399       .  A
C2021      H2028   1.084       .  S
C2022      S2024   1.801       .  S
S2023      H2026   1.405       .  S
S2024      H2025   1.407       .  S
C2029      C2810   1.408       .  A
C2029      C2034   1.420       .  A
C2030      C2809   1.408   1_545  A
C2030      C2031   1.394       .  A
C2030      H2039   1.079       .  S
C2031      C2812   1.407   1_545  A
C2031      S2035   1.806       .  S
C2032      C2811   1.406       .  A
C2032      C2033   1.401       .  A
C2033      C2034   1.406       .  A
C2033      H2040   1.083       .  S
C2034      S2036   1.809       .  S
S2035      H2038   1.405       .  S
S2036      H2037   1.406       .  S
C2041      C2822   1.406       .  A
C2041      C2046   1.416       .  A
C2042      C2821   1.406   1_545  A
C2042      C2043   1.396       .  A
C2042      H2051   1.084       .  S
C2043      C2824   1.410   1_545  A
C2043      S2047   1.805       .  S
C2044      C2823   1.410       .  A
C2044      C2045   1.399       .  A
C2045      C2046   1.393       .  A
C2045      H2052   1.084       .  S
C2046      S2048   1.800       .  S
S2047      H2050   1.405       .  S
S2048      H2049   1.407       .  S
C2053      C2054   1.406       .  A
C2053      C2058   1.415   1_655  A
C2054      C2055   1.403       .  A
C2054      H2063   1.082       .  S
C2055      C2056   1.408   1_655  A
C2055      S2059   1.806       .  S
C2056      C2057   1.401       .  A
C2057      C2058   1.399       .  A
C2057      H2064   1.084       .  S
C2058      S2060   1.802       .  S
S2059      H2062   1.407       .  S
S2060      H2061   1.407       .  S
C2065      C2070   1.423   1_455  A
C2066      C2067   1.399       .  A
C2066      H2075   1.082       .  S
C2067      S2071   1.804       .  S
C2068      C2069   1.399   1_455  A
C2069      C2070   1.404       .  A
C2069      H2076   1.083       .  S
C2070      S2072   1.809       .  S
S2071      H2074   1.404       .  S
S2072      H2073   1.407       .  S
C2077      C2078   1.406       .  A
C2077      C2082   1.417       .  A
C2078      C2079   1.409       .  A
C2078      H2087   1.081       .  S
C2079      C2080   1.423       .  A
C2079      S2083   1.803       .  S
C2080      C2081   1.411       .  A
C2081      C2082   1.397       .  A
C2081      H2088   1.082       .  S
C2082      S2084   1.801       .  S
S2083      H2086   1.406       .  S
S2084      H2085   1.408       .  S
C2089      C2090   1.404       .  A
C2089      C2094   1.420       .  A
C2090      C2091   1.408       .  A
C2090      H2099   1.080       .  S
C2091      C2092   1.423       .  A
C2091      S2095   1.806       .  S
C2092      C2093   1.403       .  A
C2093      C2094   1.396       .  A
C2093      H2100   1.084       .  S
C2094      S2096   1.802       .  S
S2095      H2098   1.406       .  S
S2096      H2097   1.408       .  S
C2101      C2102   1.401       .  A
C2101      C2106   1.415       .  A
C2102      C2103   1.395       .  A
C2102      H2111   1.082       .  S
C2103      C2104   1.412       .  A
C2103      S2107   1.805       .  S
C2104      C2105   1.402       .  A
C2105      C2106   1.397       .  A
C2105      H2112   1.084       .  S
C2106      S2108   1.802       .  S
S2107      H2110   1.405       .  S
S2108      H2109   1.407       .  S
C2113      C2114   1.407       .  A
C2113      C2118   1.421       .  A
C2114      C2115   1.403       .  A
C2114      H2123   1.084       .  S
C2115      C2116   1.413       .  A
C2115      S2119   1.804       .  S
C2116      C2117   1.401       .  A
C2117      C2118   1.403       .  A
C2117      H2124   1.084       .  S
C2118      S2120   1.802       .  S
S2119      H2122   1.406       .  S
S2120      H2121   1.407       .  S
C2125      C2126   1.407       .  A
C2125      C2130   1.417       .  A
C2126      C2127   1.402       .  A
C2126      H2135   1.083       .  S
C2127      C2128   1.412       .  A
C2127      S2131   1.804       .  S
C2128      C2129   1.402       .  A
C2129      C2130   1.402       .  A
C2129      H2136   1.084       .  S
C2130      S2132   1.801       .  S
S2131      H2134   1.405       .  S
S2132      H2133   1.407       .  S
C2137      C2138   1.399       .  A
C2137      C2142   1.409       .  A
C2138      C2139   1.395       .  A
C2138      H2147   1.084       .  S
C2139      C2140   1.416       .  A
C2139      S2143   1.801       .  S
C2140      C2141   1.408       .  A
C2141      C2142   1.398       .  A
C2141      H2148   1.083       .  S
C2142      S2144   1.804       .  S
S2143      H2146   1.408       .  S
S2144      H2145   1.405       .  S
C2149      C2154   1.426       .  A
C2150      C2151   1.399       .  A
C2150      H2159   1.071       .  S
C2151      S2155   1.811       .  S
C2152      C2153   1.398       .  A
C2153      C2154   1.404       .  A
C2153      H2160   1.082       .  S
C2154      S2156   1.809       .  S
S2155      H2158   1.406       .  S
S2156      H2157   1.406       .  S
C2161      C2166   1.417   1_455  A
C2162      C2163   1.397       .  A
C2162      H2171   1.083       .  S
C2163      S2167   1.805       .  S
C2164      C2165   1.403   1_455  A
C2165      C2166   1.404       .  A
C2165      H2172   1.083       .  S
C2166      S2168   1.803       .  S
S2167      H2170   1.404       .  S
S2168      H2169   1.407       .  S
C2173      C2174   1.405       .  A
C2173      C2178   1.419       .  A
C2174      C2175   1.400       .  A
C2174      H2183   1.083       .  S
C2175      C2176   1.415       .  A
C2175      S2179   1.806       .  S
C2176      C2177   1.403       .  A
C2177      C2178   1.408       .  A
C2177      H2184   1.084       .  S
C2178      S2180   1.802       .  S
S2179      H2182   1.406       .  S
S2180      H2181   1.407       .  S
C2185      C2186   1.404       .  A
C2185      C2190   1.416       .  A
C2186      C2187   1.406       .  A
C2186      H2195   1.084       .  S
C2187      C2188   1.417       .  A
C2187      S2191   1.806       .  S
C2188      C2189   1.400       .  A
C2189      C2190   1.401       .  A
C2189      H2196   1.084       .  S
C2190      S2192   1.802       .  S
S2191      H2194   1.402       .  S
S2192      H2193   1.404       .  S
C2197      C2198   1.408       .  A
C2197      C2982   1.419       .  A
C2198      C2199   1.410       .  A
C2198      H2207   1.081       .  S
C2199      C2200   1.414       .  A
C2199      S2203   1.800       .  S
C2200      C2981   1.406       .  A
C2201      C2980   1.406   1_545  A
C2201      C2202   1.395       .  A
C2201      H2208   1.084       .  S
C2202      C2977   1.418   1_545  A
C2202      S2204   1.801       .  S
S2203      H2206   1.407       .  S
S2204      H2205   1.408       .  S
C2209      C2210   1.404       .  A
C2209      C2994   1.413       .  A
C2210      C2211   1.406       .  A
C2210      H2219   1.082       .  S
C2211      C2212   1.417       .  A
C2211      S2215   1.803       .  S
C2212      C2993   1.406       .  A
C2213      C2992   1.406   1_545  A
C2213      C2214   1.398       .  A
C2213      H2220   1.082       .  S
C2214      C2989   1.411       .  A
C2214      S2216   1.805       .  S
S2215      H2218   1.407       .  S
S2216      H2217   1.406       .  S
C2221      C2222   1.401       .  A
C2221      C2226   1.407       .  A
C2222      C2223   1.403       .  A
C2222      H2231   1.082       .  S
C2223      C2224   1.423       .  A
C2223      S2227   1.810       .  S
C2224      C2225   1.415       .  A
C2225      C2226   1.395       .  A
C2225      H2232   1.075       .  S
C2226      S2228   1.806       .  S
S2227      H2230   1.407       .  S
S2228      H2229   1.407       .  S
C2233      C2234   1.399       .  A
C2233      C2238   1.413       .  A
C2234      C2235   1.399       .  A
C2234      H2243   1.083       .  S
C2235      C2236   1.419       .  A
C2235      S2239   1.803       .  S
C2236      C2237   1.407       .  A
C2237      C2238   1.400       .  A
C2237      H2244   1.081       .  S
C2238      S2240   1.807       .  S
S2239      H2242   1.408       .  S
S2240      H2241   1.398       .  S
C2245      C2246   1.407       .  A
C2245      C2250   1.419       .  A
C2246      C2247   1.401       .  A
C2246      H2255   1.083       .  S
C2247      C2248   1.412       .  A
C2247      S2251   1.804       .  S
C2248      C2249   1.399       .  A
C2249      C2250   1.397       .  A
C2249      H2256   1.084       .  S
C2250      S2252   1.800       .  S
S2251      H2254   1.406       .  S
S2252      H2253   1.407       .  S
C2257      C2258   1.405       .  A
C2257      C2262   1.416       .  A
C2258      C2259   1.398       .  A
C2258      H2267   1.083       .  S
C2259      C2260   1.411       .  A
C2259      S2263   1.805       .  S
C2260      C2261   1.400       .  A
C2261      C2262   1.402       .  A
C2261      H2268   1.083       .  S
C2262      S2264   1.808       .  S
S2263      H2266   1.406       .  S
S2264      H2265   1.406       .  S
C2269      C2270   1.408       .  A
C2269      C2274   1.420       .  A
C2270      C2271   1.399       .  A
C2270      H2279   1.080       .  S
C2271      C2272   1.410       .  A
C2271      S2275   1.808       .  S
C2272      C2273   1.400       .  A
C2273      C2274   1.399       .  A
C2273      H2280   1.084       .  S
C2274      S2276   1.800       .  S
S2275      H2278   1.401       .  S
S2276      H2277   1.408       .  S
C2281      C2282   1.402       .  A
C2281      C2286   1.411       .  A
C2282      C2283   1.394       .  A
C2282      H2291   1.084       .  S
C2283      C2284   1.414       .  A
C2283      S2287   1.803       .  S
C2284      C2285   1.404       .  A
C2285      C2286   1.399       .  A
C2285      H2292   1.084       .  S
C2286      S2288   1.804       .  S
S2287      H2290   1.407       .  S
S2288      H2289   1.406       .  S
C2293      C3074   1.403       .  A
C2293      C2298   1.416       .  A
C2294      C3073   1.402   1_545  A
C2294      C2295   1.395       .  A
C2294      H2303   1.083       .  S
C2295      C3076   1.412       .  A
C2295      S2299   1.797       .  S
C2296      C3075   1.411       .  A
C2296      C2297   1.404       .  A
C2297      C2298   1.406       .  A
C2297      H2304   1.079       .  S
C2298      S2300   1.803       .  S
S2299      H2302   1.402       .  S
S2300      H2301   1.406       .  S
C2305      C2306   1.404       .  A
C2305      C3090   1.413       .  A
C2306      C2307   1.410       .  A
C2306      H2315   1.082       .  S
C2307      C2308   1.420       .  A
C2307      S2311   1.802       .  S
C2308      C3089   1.410       .  A
C2309      C3088   1.410   1_545  A
C2309      C2310   1.404       .  A
C2309      H2316   1.081       .  S
C2310      C3085   1.413       .  A
C2310      S2312   1.808       .  S
S2311      H2314   1.407       .  S
S2312      H2313   1.406       .  S
C2317      C2318   1.417       .  A
C2317      C2322   1.426       .  A
C2318      C2319   1.400       .  A
C2318      H2327   1.073       .  S
C2319      C2320   1.406       .  A
C2319      S2323   1.807       .  S
C2320      C2321   1.396       .  A
C2321      C2322   1.405       .  A
C2321      H2328   1.083       .  S
C2322      S2324   1.806       .  S
S2323      H2326   1.404       .  S
S2324      H2325   1.407       .  S
C2329      C2330   1.402       .  A
C2329      C2334   1.414       .  A
C2330      C2331   1.404       .  A
C2330      H2339   1.079       .  S
C2331      C2332   1.415       .  A
C2331      S2335   1.803       .  S
C2332      C2333   1.405       .  A
C2333      C2334   1.398       .  A
C2333      H2340   1.083       .  S
C2334      S2336   1.805       .  S
S2335      H2338   1.406       .  S
S2336      H2337   1.404       .  S
C2341      C2342   1.537       .  S
C2341      C2347   1.538       .  S
C2341      C2345   1.545       .  S
C2341      C3097   1.546       .  S
C2342      H2349   1.086       .  S
C2343      C2344   1.544   1_545  S
C2343      C3076   1.487       .  S
C2344      C2348   1.547   1_565  S
C2344      C2346   1.541       .  S
C2344      H2350   1.111       .  S
C2346      C3109   1.489       .  S
C2347      H2352   1.085       .  S
C2348      C3085   1.498       .  S
N2353      C2358   1.351       .  A
N2353      C2357   1.351   1_554  A
N2353      H2385   1.038       .  S
N2354      C2362   1.351       .  A
N2355      C2360   1.349       .  A
N2355      C2359   1.350   1_554  A
N2355      H2386   1.038       .  S
N2356      C2364   1.350       .  A
C2357      C2365   1.387       .  A
C2357      C2373   1.412       .  A
C2358      C2374   1.411       .  A
C2358      C2366   1.387       .  A
C2359      C2367   1.386       .  A
C2359      C2376   1.408       .  A
C2360      C2375   1.409       .  A
C2360      C2368   1.387       .  A
C2361      C2373   1.415       .  A
C2361      C2369   1.388       .  A
C2362      C2376   1.410       .  A
C2362      C2370   1.385       .  A
C2363      C2371   1.386       .  A
C2363      C2374   1.409       .  A
C2364      C2372   1.386       .  A
C2364      C2375   1.410       .  A
C2365      C2366   1.377   1_556  A
C2365      H2377   1.082       .  S
C2366      H2378   1.082       .  S
C2367      C2368   1.375   1_556  A
C2367      H2379   1.082       .  S
C2368      H2380   1.082       .  S
C2369      H2381   1.082       .  S
C2370      H2382   1.082       .  S
C2371      H2383   1.082       .  S
C2372      H2384   1.082       .  S
C2373      C3061   1.485       .  S
C2374      C3040   1.480       .  S
C2375      C3028   1.480       .  S
C2376      C3052   1.480       .  S
C2387      C2388   1.533       .  S
C2387      C2393   1.534       .  S
C2387      C2391   1.542       .  S
C2387      C3004   1.541       .  S
C2389      C2390   1.546       .  S
C2389      C3013   1.475       .  S
C2390      C2394   1.537   1_565  S
C2390      C2392   1.546   1_565  S
C2390      H2396   1.109       .  S
C2391      H2397   1.080       .  S
C2392      C2980   1.500   1_545  S
C2393      H2398   1.086       .  S
C2394      C2989   1.485       .  S
C2399      C2400   1.544       .  S
C2399      C2405   1.538       .  S
C2400      H2407   1.079       .  S
C2400      C2401   1.361       .  D
C2401      C2402   1.543       .  S
C2401      C2956   1.487       .  S
C2402      C2406   1.544       .  S
C2402      H2408   1.111       .  S
C2403      H2409   1.086       .  S
C2403      C2404   1.364       .  D
C2404      C2965   1.485       .  S
C2405      H2410   1.086       .  S
C2405      C2406   1.368       .  D
N2411      C2416   1.353   1_554  A
N2411      C2415   1.357       .  A
N2411      H2443   1.038       .  S
N2412      C2420   1.350       .  A
N2413      C2418   1.354   1_554  A
N2413      C2417   1.350       .  A
N2413      H2444   1.038       .  S
N2414      C2422   1.354       .  A
C2415      C2423   1.387       .  A
C2415      C2431   1.420       .  A
C2416      C2432   1.418       .  A
C2416      C2424   1.387       .  A
C2417      C2425   1.387       .  A
C2417      C2434   1.411       .  A
C2418      C2433   1.414       .  A
C2418      C2426   1.387       .  A
C2419      C2431   1.415       .  A
C2419      C2427   1.386       .  A
C2420      C2434   1.412       .  A
C2420      C2428   1.387       .  A
C2421      C2429   1.389       .  A
C2421      C2432   1.416       .  A
C2422      C2430   1.384       .  A
C2422      C2433   1.413       .  A
C2423      C2424   1.380   1_554  A
C2423      H2435   1.082       .  S
C2424      H2436   1.082       .  S
C2425      C2426   1.376   1_554  A
C2425      H2437   1.082       .  S
C2426      H2438   1.082       .  S
C2427      H2439   1.082       .  S
C2428      H2440   1.082       .  S
C2429      H2441   1.082       .  S
C2430      H2442   1.082       .  S
C2431      C2896   1.500       .  S
C2432      C2917   1.489       .  S
C2433      C2908   1.495       .  S
C2434      C2884   1.478       .  S
C2445      N2463   1.350       .  A
C2445      C2482   1.456       .  S
C2445      C3064   1.472       .  S
N2446      N2463   1.324       .  A
N2446      N2468   1.319       .  A
N2446     Co2483   2.081       .  S
C2447      N2472   1.342       .  A
C2447      H2492   1.081       .  S
C2447      C2485   1.471       .  S
H2448      C2489   1.081       .  S
C2449      N2473   1.339       .  A
C2449      H2478   1.081       .  S
C2449      C2453   1.461       .  S
Co2450     N2468   2.073       .  S
Co2450     N2458   2.082       .  S
Co2450     N2490   2.085       .  S
Co2450     N2466   2.076       .  S
Co2450    Cl2494   2.444       .  S
N2451      C2489   1.342       .  A
N2451      N2458   1.318       .  A
N2451     Co2452   2.086       .  S
Co2452     N2455   2.078       .  S
Co2452     N2472   2.088       .  S
Co2452     N2459   2.086       .  S
Co2452    Cl2494   2.455       .  S
C2453      N2491   1.348       .  A
C2453      C3049   1.479       .  S
N2454      N2461   1.319       .  A
N2454      N2484   1.326       .  A
N2454     Co2487   2.092       .  S
N2455      N2473   1.319       .  A
N2455      N2491   1.322       .  A
N2456      C2485   1.349       .  A
N2456      N2466   1.320       .  A
H2457      C2482   1.081       .  S
N2458      N2479   1.324       .  A
N2459      N2477   1.320       .  A
N2459      N2464   1.325       .  A
C2460      N2464   1.352       .  A
C2460      C2488   1.466       .  S
C2460      C2953   1.487       .  S
N2461      C2476   1.342       .  A
N2461     Co2483   2.086       .  S
C2462      N2490   1.342       .  A
C2462      H2496   1.081       .  S
C2462      C2465   1.458       .  S
C2465      N2486   1.353       .  A
C2465      C2968   1.478       .  S
N2466      N2472   1.318       .  A
N2467      C2493   1.338       .  A
N2467      N2469   1.320       .  A
N2467     Co2483   2.083       .  S
N2468      C2482   1.337       .  A
N2469      N2497   1.324       .  A
N2469     Co2487   2.083       .  S
H2470      C2493   1.081       .  S
H2471      C2488   1.082       .  S
N2473     Co2487   2.079       .  S
N2474      N2486   1.327       .  A
N2474      N2490   1.320       .  A
N2474     Co2483   2.098       .  S
C2475      N2479   1.350       .  A
C2475      C2489   1.464       .  S
C2475      C2920   1.487       .  S
C2476      H2480   1.082       .  S
C2476      C2495   1.461       .  S
N2477      C2488   1.341       .  A
N2477     Co2487   2.092       .  S
C2481      N2497   1.351       .  A
C2481      C2493   1.463       .  S
C2481      C3001   1.480       .  S
Co2483    Cl2494   2.456       .  S
N2484      C2495   1.352       .  A
C2485      C3016   1.488       .  S
Co2487    Cl2494   2.447       .  S
C2495      C2905   1.483       .  S
C2498      N2516   1.344       .  A
C2498      C2535   1.475       .  S
C2498      C2869   1.494       .  S
N2499      N2516   1.319       .  A
N2499      N2521   1.319       .  A
N2499     Co2536   2.066       .  S
C2500      N2525   1.343       .  A
C2500      H2545   1.081       .  S
C2500      C2538   1.464       .  S
H2501      C2542   1.082       .  S
C2502      N2526   1.334       .  A
C2502      H2531   1.078       .  S
C2502      C2506   1.463       .  S
Co2503     N2521   2.101       .  S
Co2503     N2511   2.100       .  S
Co2503     N2543   2.082       .  S
Co2503     N2519   2.099       .  S
Co2503    Cl2547   2.459       .  S
N2504      C2542   1.341       .  A
N2504      N2511   1.320       .  A
N2504     Co2505   2.091       .  S
Co2505     N2508   2.096       .  S
Co2505     N2525   2.090       .  S
Co2505     N2512   2.089       .  S
Co2505    Cl2547   2.447       .  S
C2506      N2544   1.357       .  A
C2506      C2857   1.492       .  S
N2507      N2514   1.321       .  A
N2507      N2537   1.324       .  A
N2507     Co2540   2.078       .  S
N2508      N2526   1.317       .  A
N2508      N2544   1.326       .  A
N2509      C2538   1.354       .  A
N2509      N2519   1.328       .  A
H2510      C2535   1.081       .  S
N2511      N2532   1.327       .  A
N2512      N2530   1.319       .  A
N2512      N2517   1.323       .  A
C2513      N2517   1.351       .  A
C2513      C2541   1.460       .  S
C2513      C3025   1.478       .  S
N2514      C2529   1.342       .  A
N2514     Co2536   2.093       .  S
C2515      N2543   1.340       .  A
C2515      H2549   1.081       .  S
C2515      C2518   1.461       .  S
C2518      N2539   1.349       .  A
C2518      C3037   1.481       .  S
N2519      N2525   1.319       .  A
N2520      C2546   1.337       .  A
N2520      N2522   1.316       .  A
N2520     Co2536   2.069       .  S
N2521      C2535   1.346       .  A
N2522      N2550   1.324       .  A
N2522     Co2540   2.078       .  S
H2523      C2546   1.080       .  S
H2524      C2541   1.080       .  S
N2526     Co2540   2.069       .  S
N2527      N2539   1.323       .  A
N2527      N2543   1.319       .  A
N2527     Co2536   2.080       .  S
C2528      N2532   1.355       .  A
C2528      C2542   1.466       .  S
C2528      C3112   1.490       .  S
C2529      H2533   1.081       .  S
C2529      C2548   1.460       .  S
N2530      C2541   1.337       .  A
N2530     Co2540   2.068       .  S
C2534      N2550   1.351       .  A
C2534      C2546   1.458       .  S
C2534      C2881   1.477       .  S
Co2536    Cl2547   2.438       .  S
N2537      C2548   1.348       .  A
C2538      C2893   1.493       .  S
Co2540    Cl2547   2.459       .  S
C2548      C3100   1.470       .  S
C2551      N2569   1.354       .  A
C2551      C2992   1.488       .  S
N2552      N2569   1.327       .  A
N2552     Co2589   2.094       .  S
C2553      N2578   1.341       .  A
C2553      H2598   1.081       .  S
C2553      C2591   1.462       .  S
H2554      C2595   1.081       .  S
C2555      N2579   1.344       .  A
C2555      H2584   1.081       .  S
C2555      C2559   1.469       .  S
Co2556     N2574   2.090       .  S
Co2556     N2564   2.079       .  S
Co2556     N2596   2.073       .  S
Co2556     N2572   2.091       .  S
N2557      C2595   1.342       .  A
N2557     Co2558   2.086       .  S
Co2558     N2561   2.078       .  S
Co2558     N2578   2.082       .  S
Co2558     N2565   2.074       .  S
C2559      C2977   1.497       .  S
N2560      N2590   1.327       .  A
N2560     Co2593   2.096       .  S
N2561      N2597   1.320       .  A
N2562      N2572   1.326       .  A
H2563      C2588   1.081       .  S
N2564      N2585   1.321       .  A
N2565      N2570   1.322       .  A
C2566      C2594   1.460       .  S
C2566      C2821   1.473       .  S
N2567      C2582   1.339       .  A
N2567     Co2589   2.087       .  S
C2568      N2596   1.335       .  A
C2568      H2602   1.080       .  S
C2571      N2592   1.353       .  A
C2571      C2809   1.492       .  S
N2573      C2599   1.342       .  A
N2573     Co2589   2.089       .  S
N2574      C2588   1.340       .  A
N2575      N2603   1.324       .  A
N2575     Co2593   2.083       .  S
H2576      C2599   1.081       .  S
H2577      C2594   1.080       .  S
N2579     Co2593   2.094       .  S
N2580      N2592   1.326       .  A
N2580     Co2589   2.088       .  S
C2581      C2595   1.464       .  S
C2581      C2932   1.483       .  S
C2582      H2586   1.082       .  S
N2583      C2594   1.338       .  A
N2583     Co2593   2.079       .  S
C2587      N2603   1.350   1_455  A
C2587      C2845   1.493       .  S
N2590      C2601   1.355       .  A
C2591      C2833   1.482       .  S
Co2593    Cl2600   2.451       .  S
C2601      C2941   1.494       .  S
C2604      N2622   1.348       .  A
C2604      C2749   1.468       .  S
N2605      N2622   1.323       .  A
N2605     Co2642   2.077       .  S
C2606      N2631   1.339       .  A
C2606      H2651   1.081       .  S
C2606      C2644   1.459       .  S
H2607      C2648   1.079       .  S
C2608      N2632   1.339       .  A
C2608      H2637   1.081       .  S
C2608      C2612   1.464       .  S
Co2609     N2627   2.086       .  S
Co2609     N2617   2.082       .  S
Co2609     N2649   2.085       .  S
Co2609     N2625   2.080       .  S
N2610      C2648   1.346       .  A
N2610     Co2611   2.101       .  S
Co2611     N2614   2.089       .  S
Co2611     N2631   2.079       .  S
Co2611     N2618   2.092       .  S
C2612      C2737   1.484       .  S
N2613      N2643   1.325       .  A
N2613     Co2646   2.082       .  S
N2614      N2650   1.324       .  A
N2615      N2625   1.322       .  A
H2616      C2641   1.082       .  S
N2617      N2638   1.321       .  A
N2618      N2623   1.326       .  A
C2619      C2647   1.458       .  S
C2619      C2776   1.478   1_655  S
N2620      C2635   1.336       .  A
N2620     Co2642   2.077       .  S
C2621      N2649   1.341       .  A
C2621      H2655   1.081       .  S
C2624      N2645   1.349   1_455  A
C2624      C2761   1.489   1_455  S
N2626      C2652   1.338       .  A
N2626     Co2642   2.079       .  S
N2627      C2641   1.341       .  A
N2628      N2656   1.326       .  A
N2628     Co2646   2.088       .  S
H2629      C2652   1.080       .  S
H2630      C2647   1.081       .  S
N2632     Co2646   2.083       .  S
N2633      N2645   1.322       .  A
N2633     Co2642   2.073       .  S
C2634      C2648   1.476       .  S
C2634      C3088   1.505       .  S
C2635      H2639   1.081       .  S
N2636      C2647   1.338       .  A
N2636     Co2646   2.077       .  S
C2640      N2656   1.352       .  A
C2640      C2797   1.484       .  S
N2643      C2654   1.351       .  A
C2644      C2785   1.471       .  S
Co2646    Cl2653   2.449   1_655  S
C2654      C3073   1.484       .  S
N2657      C2662   1.353   1_455  A
N2657      C2661   1.352   1_455  A
N2657      H2689   1.039       .  S
N2658      C2665   1.351       .  A
N2658      C2666   1.352       .  A
N2659      C2664   1.351   1_455  A
N2659      C2663   1.351   1_455  A
N2659      H2690   1.040       .  S
N2660      C2667   1.350       .  A
N2660      C2668   1.351       .  A
C2661      C2669   1.387       .  A
C2661      C2677   1.416   1_655  A
C2662      C2678   1.416   1_655  A
C2662      C2670   1.387       .  A
C2663      C2671   1.387       .  A
C2663      C2680   1.412   1_655  A
C2664      C2679   1.411   1_655  A
C2664      C2672   1.387       .  A
C2665      C2677   1.414       .  A
C2665      C2673   1.387       .  A
C2666      C2680   1.413       .  A
C2666      C2674   1.385       .  A
C2667      C2675   1.387       .  A
C2667      C2678   1.413       .  A
C2668      C2676   1.386       .  A
C2668      C2679   1.410       .  A
C2669      C2670   1.378       .  A
C2669      H2681   1.082       .  S
C2670      H2682   1.082       .  S
C2671      C2672   1.375       .  A
C2671      H2683   1.082       .  S
C2672      H2684   1.082       .  S
C2673      C2674   1.374       .  A
C2673      H2685   1.082       .  S
C2674      H2686   1.082       .  S
C2675      C2676   1.370       .  A
C2675      H2687   1.082       .  S
C2676      H2688   1.082       .  S
C2677      C2848   1.486       .  S
C2678      C2773   1.489       .  S
C2679      C2764   1.480       .  S
C2680      C2836   1.487   1_455  S
N2691      C2696   1.350       .  A
N2691      C2695   1.352       .  A
N2691      H2723   1.039   1_565  S
N2692      C2699   1.351       .  A
N2692      C2700   1.349       .  A
N2693      C2698   1.351       .  A
N2693      C2697   1.349       .  A
N2693      H2724   1.040   1_565  S
N2694      C2701   1.349       .  A
N2694      C2702   1.350       .  A
C2695      C2703   1.387       .  A
C2695      C2711   1.412       .  A
C2696      C2712   1.412       .  A
C2696      C2704   1.387       .  A
C2697      C2705   1.387       .  A
C2697      C2714   1.409       .  A
C2698      C2713   1.409       .  A
C2698      C2706   1.386       .  A
C2699      C2711   1.412       .  A
C2699      C2707   1.387   1_565  A
C2700      C2714   1.411       .  A
C2700      C2708   1.386   1_565  A
C2701      C2709   1.388   1_565  A
C2701      C2712   1.412       .  A
C2702      C2710   1.384   1_565  A
C2702      C2713   1.409       .  A
C2703      C2704   1.378       .  A
C2703      H2715   1.082       .  S
C2704      H2716   1.082       .  S
C2705      C2706   1.375       .  A
C2705      H2717   1.082       .  S
C2706      H2718   1.082       .  S
C2707      C2708   1.371       .  A
C2707      H2719   1.082       .  S
C2708      H2720   1.082       .  S
C2709      C2710   1.372       .  A
C2709      H2721   1.082       .  S
C2710      H2722   1.082       .  S
C2711      C2812   1.484       .  S
C2712      C2788   1.481       .  S
C2713      C2800   1.483       .  S
C2714      C2824   1.478       .  S
C2725      C2726   1.528       .  S
C2726      H2733   1.084       .  S
C2726      C2727   1.372       .  D
C2727      C2728   1.555       .  S
C2727      C2860   1.520       .  S
C2728      C2730   1.547       .  S
C2728      H2734   1.093       .  S
C2729      H2735   1.081       .  S
C2731      H2736   1.086       .  S
C2731      C2732   1.368       .  D
C2732      C2872   1.503       .  S
C2737      C2738   1.406       .  A
C2738      C2739   1.398       .  A
C2738      H2747   1.082       .  S
C2739      C2740   1.414       .  A
C2739      S2743   1.807       .  S
C2741      C2742   1.398       .  A
C2741      H2748   1.080       .  S
C2742      S2744   1.801       .  S
S2743      H2746   1.402       .  S
S2744      H2745   1.407       .  S
C2749      C2754   1.407       .  A
C2750      C2751   1.403       .  A
C2750      H2759   1.083       .  S
C2751      S2755   1.813       .  S
C2752      C2753   1.413       .  A
C2753      C2754   1.398       .  A
C2753      H2760   1.075       .  S
C2754      S2756   1.805       .  S
S2755      H2758   1.406       .  S
S2756      H2757   1.405   1_655  S
C2761      C2766   1.421       .  A
C2762      C2763   1.399       .  A
C2762      H2771   1.081       .  S
C2763      S2767   1.806       .  S
C2764      C2765   1.399   1_455  A
C2765      C2766   1.398       .  A
C2765      H2772   1.084       .  S
C2766      S2768   1.799       .  S
S2767      H2770   1.405       .  S
S2768      H2769   1.405       .  S
C2773      C2774   1.403   1_455  A
C2774      C2775   1.396       .  A
C2774      H2783   1.084       .  S
C2775      C2776   1.413   1_655  A
C2775      S2779   1.803       .  S
C2777      C2778   1.403       .  A
C2777      H2784   1.084       .  S
C2778      S2780   1.804       .  S
S2779      H2782   1.408       .  S
S2780      H2781   1.405       .  S
C2785      C2790   1.412       .  A
C2786      C2787   1.397       .  A
C2786      H2795   1.084       .  S
C2787      S2791   1.805       .  S
C2788      C2789   1.402       .  A
C2789      C2790   1.394       .  A
C2789      H2796   1.084       .  S
C2790      S2792   1.802       .  S
S2791      H2794   1.405       .  S
S2792      H2793   1.408       .  S
C2797      C2802   1.417       .  A
C2798      C2799   1.398       .  A
C2798      H2807   1.081       .  S
C2799      S2803   1.805       .  S
C2800      C2801   1.402       .  A
C2801      C2802   1.399       .  A
C2801      H2808   1.084       .  S
C2802      S2804   1.800       .  S
S2803      H2806   1.406       .  S
S2804      H2805   1.407       .  S
C2809      C2814   1.421       .  A
C2810      C2811   1.394       .  A
C2810      H2819   1.079       .  S
C2811      S2815   1.807       .  S
C2812      C2813   1.401       .  A
C2813      C2814   1.406       .  A
C2813      H2820   1.083       .  S
C2814      S2816   1.807       .  S
S2815      H2818   1.403       .  S
S2816      H2817   1.407       .  S
C2821      C2826   1.415       .  A
C2822      C2823   1.397       .  A
C2822      H2831   1.084       .  S
C2823      S2827   1.805       .  S
C2824      C2825   1.400       .  A
C2825      C2826   1.393       .  A
C2825      H2832   1.084       .  S
C2826      S2828   1.800       .  S
S2827      H2830   1.405       .  S
S2828      H2829   1.407       .  S
C2833      C2834   1.405       .  A
C2833      C2838   1.416   1_655  A
C2834      C2835   1.402       .  A
C2834      H2843   1.082       .  S
C2835      C2836   1.408       .  A
C2835      S2839   1.806       .  S
C2836      C2837   1.402   1_655  A
C2837      C2838   1.400       .  A
C2837      H2844   1.084       .  S
C2838      S2840   1.803       .  S
S2839      H2842   1.406       .  S
S2840      H2841   1.407       .  S
C2845      C2850   1.422   1_455  A
C2846      C2847   1.398       .  A
C2846      H2855   1.082       .  S
C2847      S2851   1.806       .  S
C2848      C2849   1.400   1_455  A
C2849      C2850   1.405       .  A
C2849      H2856   1.083       .  S
C2850      S2852   1.809       .  S
S2851      H2854   1.403       .  S
S2852      H2853   1.407       .  S
C2857      C2858   1.403       .  A
C2857      C2862   1.412       .  A
C2858      C2859   1.408       .  A
C2858      H2867   1.082       .  S
C2859      C2860   1.427       .  A
C2859      S2863   1.803       .  S
C2860      C2861   1.414       .  A
C2861      C2862   1.394       .  A
C2861      H2868   1.080       .  S
C2862      S2864   1.803       .  S
S2863      H2866   1.406       .  S
S2864      H2865   1.408       .  S
C2869      C2870   1.404       .  A
C2869      C2874   1.420       .  A
C2870      C2871   1.408       .  A
C2870      H2879   1.080       .  S
C2871      C2872   1.422       .  A
C2871      S2875   1.806       .  S
C2872      C2873   1.404       .  A
C2873      C2874   1.396       .  A
C2873      H2880   1.084       .  S
C2874      S2876   1.802       .  S
S2875      H2878   1.406       .  S
S2876      H2877   1.408       .  S
C2881      C2882   1.404       .  A
C2881      C2886   1.418       .  A
C2882      C2883   1.397       .  A
C2882      H2891   1.083       .  S
C2883      C2884   1.410       .  A
C2883      S2887   1.805       .  S
C2884      C2885   1.399       .  A
C2885      C2886   1.396       .  A
C2885      H2892   1.084       .  S
C2886      S2888   1.801       .  S
S2887      H2890   1.405       .  S
S2888      H2889   1.407       .  S
C2893      C2894   1.405       .  A
C2893      C2898   1.419       .  A
C2894      C2895   1.403       .  A
C2894      H2903   1.084       .  S
C2895      C2896   1.416       .  A
C2895      S2899   1.804       .  S
C2896      C2897   1.404       .  A
C2897      C2898   1.405       .  A
C2897      H2904   1.084       .  S
C2898      S2900   1.803       .  S
S2899      H2902   1.406       .  S
S2900      H2901   1.407       .  S
C2905      C2906   1.405       .  A
C2905      C2910   1.413       .  A
C2906      C2907   1.403       .  A
C2906      H2915   1.083       .  S
C2907      C2908   1.415       .  A
C2907      S2911   1.804       .  S
C2908      C2909   1.404       .  A
C2909      C2910   1.401       .  A
C2909      H2916   1.084       .  S
C2910      S2912   1.802       .  S
S2911      H2914   1.405       .  S
S2912      H2913   1.407       .  S
C2917      C2918   1.402       .  A
C2917      C2922   1.412       .  A
C2918      C2919   1.398       .  A
C2918      H2927   1.084       .  S
C2919      C2920   1.417       .  A
C2919      S2923   1.802       .  S
C2920      C2921   1.407       .  A
C2921      C2922   1.401       .  A
C2921      H2928   1.083       .  S
C2922      S2924   1.805       .  S
S2923      H2926   1.408       .  S
S2924      H2925   1.404       .  S
C2929      C2934   1.425       .  A
C2930      C2931   1.396       .  A
C2930      H2939   1.071       .  S
C2931      S2935   1.810       .  S
C2932      C2933   1.400       .  A
C2933      C2934   1.406       .  A
C2933      H2940   1.082       .  S
C2934      S2936   1.809       .  S
S2935      H2938   1.407       .  S
S2936      H2937   1.406       .  S
C2941      C2946   1.418       .  A
C2942      C2943   1.401       .  A
C2942      H2951   1.083       .  S
C2943      S2947   1.805       .  S
C2944      C2945   1.404   1_455  A
C2945      C2946   1.407       .  A
C2945      H2952   1.082       .  S
C2946      S2948   1.803       .  S
S2947      H2950   1.405       .  S
S2948      H2949   1.406       .  S
C2953      C2954   1.404       .  A
C2953      C2958   1.417       .  A
C2954      C2955   1.399       .  A
C2954      H2963   1.083       .  S
C2955      C2956   1.416       .  A
C2955      S2959   1.806       .  S
C2956      C2957   1.402       .  A
C2957      C2958   1.405       .  A
C2957      H2964   1.084       .  S
C2958      S2960   1.802       .  S
S2959      H2962   1.405       .  S
S2960      H2961   1.407       .  S
C2965      C2966   1.403       .  A
C2965      C2970   1.418       .  A
C2966      C2967   1.404       .  A
C2966      H2975   1.083       .  S
C2967      C2968   1.413       .  A
C2967      S2971   1.803       .  S
C2968      C2969   1.400       .  A
C2969      C2970   1.402       .  A
C2969      H2976   1.084       .  S
C2970      S2972   1.806       .  S
S2971      H2974   1.406       .  S
S2972      H2973   1.398       .  S
C2977      C2978   1.409       .  A
C2978      C2979   1.410       .  A
C2978      H2987   1.080       .  S
C2979      C2980   1.413       .  A
C2979      S2983   1.801       .  S
C2981      C2982   1.395       .  A
C2981      H2988   1.084       .  S
C2982      S2984   1.802       .  S
S2983      H2986   1.406       .  S
S2984      H2985   1.408       .  S
C2989      C2990   1.404   1_545  A
C2990      C2991   1.404       .  A
C2990      H2999   1.083       .  S
C2991      C2992   1.416       .  A
C2991      S2995   1.802       .  S
C2993      C2994   1.399       .  A
C2993      H3000   1.082       .  S
C2994      S2996   1.805       .  S
S2995      H2998   1.407       .  S
S2996      H2997   1.407       .  S
C3001      C3002   1.403       .  A
C3001      C3006   1.408       .  A
C3002      C3003   1.405       .  A
C3002      H3011   1.082       .  S
C3003      C3004   1.424       .  A
C3003      S3007   1.811       .  S
C3004      C3005   1.413       .  A
C3005      C3006   1.395       .  A
C3005      H3012   1.074       .  S
C3006      S3008   1.805       .  S
S3007      H3010   1.406       .  S
S3008      H3009   1.407       .  S
C3013      C3014   1.397       .  A
C3013      C3018   1.414       .  A
C3014      C3015   1.396       .  A
C3014      H3023   1.082       .  S
C3015      C3016   1.418       .  A
C3015      S3019   1.803       .  S
C3016      C3017   1.407       .  A
C3017      C3018   1.401       .  A
C3017      H3024   1.082       .  S
C3018      S3020   1.808       .  S
S3019      H3022   1.408       .  S
S3020      H3021   1.398       .  S
C3025      C3026   1.406       .  A
C3025      C3030   1.416       .  A
C3026      C3027   1.396       .  A
C3026      H3035   1.084       .  S
C3027      C3028   1.410       .  A
C3027      S3031   1.804       .  S
C3028      C3029   1.400       .  A
C3029      C3030   1.395       .  A
C3029      H3036   1.084       .  S
C3030      S3032   1.801       .  S
S3031      H3034   1.406       .  S
S3032      H3033   1.407       .  S
C3037      C3038   1.406       .  A
C3037      C3042   1.416       .  A
C3038      C3039   1.398       .  A
C3038      H3047   1.083       .  S
C3039      C3040   1.411       .  A
C3039      S3043   1.807       .  S
C3040      C3041   1.399       .  A
C3041      C3042   1.400       .  A
C3041      H3048   1.083       .  S
C3042      S3044   1.808       .  S
S3043      H3046   1.403       .  S
S3044      H3045   1.407       .  S
C3049      C3050   1.405       .  A
C3049      C3054   1.417       .  A
C3050      C3051   1.396       .  A
C3050      H3059   1.082       .  S
C3051      C3052   1.410       .  A
C3051      S3055   1.805       .  S
C3052      C3053   1.400       .  A
C3053      C3054   1.396       .  A
C3053      H3060   1.084       .  S
C3054      S3056   1.801       .  S
S3055      H3058   1.405       .  S
S3056      H3057   1.408       .  S
C3061      C3062   1.402       .  A
C3061      C3066   1.414       .  A
C3062      C3063   1.394       .  A
C3062      H3071   1.084       .  S
C3063      C3064   1.413       .  A
C3063      S3067   1.803       .  S
C3064      C3065   1.403       .  A
C3065      C3066   1.399       .  A
C3065      H3072   1.084       .  S
C3066      S3068   1.804       .  S
S3067      H3070   1.408       .  S
S3068      H3069   1.405       .  S
C3073      C3078   1.417       .  A
C3074      C3075   1.394       .  A
C3074      H3083   1.083       .  S
C3075      S3079   1.798       .  S
C3076      C3077   1.402   1_545  A
C3077      C3078   1.405       .  A
C3077      H3084   1.082       .  S
C3078      S3080   1.802       .  S
S3079      H3082   1.402       .  S
S3080      H3081   1.407       .  S
C3085      C3086   1.404   1_545  A
C3086      C3087   1.410       .  A
C3086      H3095   1.082       .  S
C3087      C3088   1.420       .  A
C3087      S3091   1.803       .  S
C3089      C3090   1.402       .  A
C3089      H3096   1.081       .  S
C3090      S3092   1.808       .  S
S3091      H3094   1.407       .  S
S3092      H3093   1.406       .  S
C3097      C3098   1.416       .  A
C3097      C3102   1.426       .  A
C3098      C3099   1.399       .  A
C3098      H3107   1.074       .  S
C3099      C3100   1.406       .  A
C3099      S3103   1.806       .  S
C3100      C3101   1.395       .  A
C3101      C3102   1.404       .  A
C3101      H3108   1.083       .  S
C3102      S3104   1.806       .  S
S3103      H3106   1.405       .  S
S3104      H3105   1.407       .  S
C3109      C3110   1.403       .  A
C3109      C3114   1.416       .  A
C3110      C3111   1.406       .  A
C3110      H3119   1.082       .  S
C3111      C3112   1.416       .  A
C3111      S3115   1.803       .  S
C3112      C3113   1.404       .  A
C3113      C3114   1.400       .  A
C3113      H3120   1.083       .  S
C3114      S3116   1.806       .  S
S3115      H3118   1.407       .  S
S3116      H3117   1.402       .  S
