geometry optimzed in LAMMPS
_audit_creation_date              2020-11-30 
_audit_creation_method            'lammps2cif' 
_symmetry_space_group_name_H-M    'P1' 
_symmetry_Int_Tables_number       1 
_symmetry_cell_setting            triclinic 
loop_ 
_symmetry_equiv_pos_as_xyz 
  x,y,z 
_cell_length_a                    31.756901514880205 
_cell_length_b                    31.813569012147635 
_cell_length_c                    51.75850288850479 
_cell_angle_alpha                 90.81172385344789 
_cell_angle_beta                  90.03907518700007 
_cell_angle_gamma                 90.80185116749054 
loop_ 
_atom_site_label 
_atom_site_type_symbol 
_atom_site_fract_x 
_atom_site_fract_y 
_atom_site_fract_z 
_atom_site_charge 
N1          N  0.19354148  0.18876266  0.16750773    -0.07160
N2          N  0.16103573  0.19035959  0.18305987    -0.59280
N3          N  0.27513616  0.23077866  0.13589929    -0.06840
N4          N  0.29655943  0.26654783  0.13536205    -0.61410
N5          N  0.23860947  0.23461100  0.12434392    -0.06440
N6          N  0.23447723  0.27303420  0.11562770    -0.59260
N7          N  0.22891603  0.18485173  0.18032781    -0.06120
N8          N  0.22090241  0.18334861  0.20542474    -0.61760
C9          C  0.17839793  0.18727951  0.20653032     0.95010
C10         C  0.27108603  0.29251842  0.12234131     0.94790
N11         N  0.35228667  0.12757951  0.12302683    -0.07350
N12         N  0.39201095  0.11977548  0.11798489    -0.59860
N13         N  0.30172796  0.12063933  0.18090835    -0.05470
N14         N  0.31756444  0.12518666  0.20418585    -0.61110
N15         N  0.31441700  0.08558534  0.16976560    -0.07380
N16         N  0.34126924  0.06682093  0.18550408    -0.60130
N17         N  0.34874238  0.16254340  0.13683351    -0.05110
N18         N  0.38687144  0.17831881  0.14177971    -0.61200
Mn19       Mn  0.28884926  0.17545457  0.15871117     1.18440
C20         C  0.41348205  0.15133028  0.12970856     0.97100
C21         C  0.34232696  0.09191422  0.20708515     0.97760
N22         N  0.18734686  0.18069625  0.08518701    -0.07400
N23         N  0.18437885  0.21259975  0.06953476    -0.63710
N24         N  0.14798694  0.09821499  0.11717888    -0.06200
N25         N  0.11198530  0.07697746  0.11607257    -0.64380
N26         N  0.14257680  0.13496670  0.12851369    -0.06900
N27         N  0.10305916  0.13927980  0.13560490    -0.63970
N28         N  0.19352120  0.14533750  0.07247308    -0.05800
N29         N  0.19572248  0.15308663  0.04734024    -0.64660
Mn30       Mn  0.19000690  0.18530385  0.12639817     1.10660
C31         C  0.18904417  0.19526371  0.04595588     0.98320
C32         C  0.08450303  0.10271236  0.12810881     0.98390
N33         N  0.25837797  0.02775219  0.12987133    -0.06910
N34         N  0.26801142  0.98927118  0.13625784    -0.62290
N35         N  0.26113387  0.07613308  0.07343465    -0.06230
N36         N  0.25946620  0.06457273  0.04921342    -0.59010
N37         N  0.29837546  0.06927219  0.08349777    -0.07540
N38         N  0.32285158  0.05155348  0.06563494    -0.61850
N39         N  0.22246518  0.02821751  0.11695309    -0.06530
N40         N  0.20800651  0.98898262  0.11385667    -0.59040
Mn41       Mn  0.30621254  0.07711805  0.12650126     1.20190
Mn42       Mn  0.20527601  0.08634139  0.09485977     1.10090
Cl43       Cl  0.24770135  0.13061494  0.12668368    -0.87010
C44         C  0.23662527  0.96519171  0.12645442     0.95320
C45         C  0.29793084  0.05023155  0.04414780     0.95120
N46         N  0.27540872  0.53347708  0.11351345    -0.07160
N47         N  0.28019444  0.49507753  0.10430596    -0.59280
N48         N  0.20413750  0.59380380  0.14052305    -0.06840
N49         N  0.16611260  0.59459352  0.15086933    -0.61410
N50         N  0.20151825  0.59471859  0.11511446    -0.06440
N51         N  0.16168581  0.59581990  0.10779434    -0.59260
N52         N  0.27947084  0.53424026  0.13882126    -0.06120
N53         N  0.28630955  0.49601667  0.14736254    -0.61760
C54         C  0.28759033  0.47226399  0.12549836     0.95010
C55         C  0.13985575  0.59571233  0.13028715     0.94790
N56         N  0.27642364  0.68220449  0.18164327    -0.07350
N57         N  0.26549771  0.70851105  0.20064403    -0.59860
N58         N  0.32750338  0.59394698  0.18185102    -0.05470
N59         N  0.33974122  0.57602187  0.20363956    -0.61110
N60         N  0.35296326  0.62578777  0.17693891    -0.07380
N61         N  0.38348446  0.62880096  0.19374031    -0.60130
N62         N  0.25143846  0.64888540  0.18186925    -0.05110
N63         N  0.22322509  0.65178080  0.20029659    -0.61200
Mn64       Mn  0.26543963  0.59144467  0.16111899     1.18440
C65         C  0.23189427  0.68890681  0.21193829     0.97100
C66         C  0.37548418  0.59792564  0.21026229     0.97760
N67         N  0.24570384  0.64359584  0.06620758    -0.07400
N68         N  0.22747363  0.64470591  0.04300837    -0.63710
N69         N  0.34166155  0.61310926  0.06452398    -0.06200
N70         N  0.36468471  0.60411464  0.04357869    -0.64380
N71         N  0.31506842  0.58178970  0.06853550    -0.06900
N72         N  0.32008318  0.55124558  0.05163469    -0.63970
N73         N  0.27088462  0.67653233  0.06902212    -0.05800
N74         N  0.26830093  0.70136273  0.04939672    -0.64660
Mn75       Mn  0.25824917  0.58818159  0.09080043     1.10660
C76         C  0.24154576  0.68182923  0.03322489     0.98320
C77         C  0.35112733  0.56465516  0.03611554     0.98390
N78         N  0.39229852  0.67453571  0.13295343    -0.06910
N79         N  0.43122799  0.66930476  0.14120322    -0.62290
N80         N  0.31472683  0.73351021  0.10919598    -0.06230
N81         N  0.29922585  0.76948533  0.10082760    -0.59010
N82         N  0.31544236  0.73401826  0.13455816    -0.07540
N83         N  0.30115946  0.76972232  0.14386634    -0.61850
N84         N  0.39086171  0.67103522  0.10766361    -0.06530
N85         N  0.42871759  0.66386327  0.09817124    -0.59040
Mn86       Mn  0.33448657  0.68021263  0.15659028     1.20190
Mn87       Mn  0.33067252  0.67409482  0.08737140     1.10090
Cl88       Cl  0.29703810  0.63335371  0.12397573    -0.87010
C89         C  0.45378687  0.66302006  0.11931028     0.95320
C90         C  0.29123312  0.79204489  0.12283949     0.95120
N91         N  0.84699709  0.12443413  0.13919322    -0.07160
N92         N  0.88491044  0.11358913  0.14669038    -0.59280
N93         N  0.78793148  0.20016229  0.11672626    -0.06840
N94         N  0.78937047  0.23851992  0.10715926    -0.61410
N95         N  0.78909886  0.20187331  0.14219169    -0.06440
N96         N  0.79196766  0.24158661  0.15018692    -0.59260
N97         N  0.84382535  0.12175422  0.11387248    -0.06120
N98         N  0.87993406  0.11001779  0.10361167    -0.61760
C99         C  0.90494772  0.10428120  0.12442020     0.95010
C100        C  0.79173309  0.26439121  0.12814395     0.94790
N101        N  0.69367806  0.13304237  0.07657157    -0.07350
N102        N  0.66927948  0.14320396  0.05672664    -0.59860
N103        N  0.77929797  0.07896049  0.07136538    -0.05470
N104        N  0.79635800  0.06676825  0.04903071    -0.61110
N105        N  0.74637018  0.05475555  0.07606613    -0.07380
N106        N  0.74099259  0.02561106  0.05828321    -0.60130
N107        N  0.72721813  0.15785833  0.07684298    -0.05110
N108        N  0.72571480  0.18562688  0.05834825    -0.61200
Mn109      Mn  0.78572779  0.13976898  0.09443748     1.18440
C110        C  0.68961344  0.17665914  0.04585633     0.97100
C111        C  0.77213054  0.03286558  0.04164638     0.97760
N112        N  0.74161688  0.15486928  0.19233687    -0.07400
N113        N  0.74449329  0.17110797  0.21614639    -0.63710
N114        N  0.77086778  0.05691924  0.18857222    -0.06200
N115        N  0.78233934  0.02999106  0.20684665    -0.64380
N116        N  0.80174413  0.08411819  0.18491131    -0.06900
N117        N  0.83417412  0.07604406  0.19959200    -0.63970
N118        N  0.70803497  0.13004987  0.19105922    -0.05800
N119        N  0.68657864  0.13154377  0.21267623    -0.64660
Mn120      Mn  0.79489533  0.14277821  0.16473991     1.10660
C121        C  0.70917879  0.15693406  0.22835618     0.98320
C122        C  0.82262037  0.04221930  0.21331276     0.98390
N123        N  0.70261576  0.01321352  0.12134640    -0.06910
N124        N  0.70861519  0.97505568  0.11156685    -0.62290
N125        N  0.64776457  0.08994887  0.15043377    -0.06230
N126        N  0.61285292  0.10429778  0.16120774    -0.59010
N127        N  0.64492270  0.09233254  0.12513884    -0.07540
N128        N  0.60864149  0.10818260  0.11815323    -0.61850
N129        N  0.70850340  0.01295990  0.14647673    -0.06530
N130        N  0.71807538  0.97485032  0.15421508    -0.59040
Mn131      Mn  0.69557294  0.07320049  0.09983997     1.20190
Mn132      Mn  0.70805544  0.07135910  0.16935710     1.10090
Cl133      Cl  0.74593734  0.10724702  0.13215114    -0.87010
C134        C  0.71806487  0.95116972  0.13225978     0.95320
C135        C  0.58910167  0.11595312  0.14075966     0.95120
N136        N  0.81873449  0.66608412  0.07405582    -0.07160
N137        N  0.82549280  0.69777171  0.05848824    -0.59280
N138        N  0.78212152  0.56736324  0.06859012    -0.06840
N139        N  0.77880410  0.54037175  0.04942927    -0.61410
N140        N  0.75318627  0.59648259  0.06719253    -0.06440
N141        N  0.72991775  0.58998036  0.04618619    -0.59260
N142        N  0.84793588  0.63731521  0.07135915    -0.06120
N143        N  0.87450468  0.64911389  0.05284506    -0.61760
C144        C  0.86064313  0.68767340  0.04554473     0.95010
C145        C  0.74621392  0.55435157  0.03581066     0.94790
N146        N  0.82220968  0.51038476  0.13531455    -0.07350
N147        N  0.81516573  0.47166347  0.14312893    -0.59860
N148        N  0.89496249  0.58195346  0.11457211    -0.05470
N149        N  0.93406420  0.58862967  0.10695668    -0.61110
N150        N  0.89320137  0.57788967  0.13976573    -0.07380
N151        N  0.93145343  0.58193204  0.14982217    -0.60130
N152        N  0.82582219  0.51156942  0.11003406    -0.05110
N153        N  0.82090414  0.47290566  0.10020837    -0.61200
Mn154      Mn  0.83860918  0.57412423  0.09076303     1.18440
C155        C  0.81422341  0.44811876  0.12119534     0.97100
C156        C  0.95667709  0.58897592  0.12908813     0.97760
N157        N  0.69835006  0.64105038  0.11186726    -0.07400
N158        N  0.65991351  0.63976183  0.10207409    -0.63710
N159        N  0.76523909  0.70831467  0.14262070    -0.06200
N160        N  0.76199528  0.74656911  0.15278556    -0.64380
N161        N  0.76578416  0.71029439  0.11723954    -0.06900
N162        N  0.76354570  0.74975735  0.10983329    -0.63970
N163        N  0.69680563  0.63991949  0.13720661    -0.05800
N164        N  0.65738731  0.63730730  0.14510754    -0.64660
Mn165      Mn  0.75844883  0.65362974  0.09229401     1.10660
C166        C  0.63451593  0.63692090  0.12305651     0.98320
C167        C  0.76144115  0.77241551  0.13212781     0.98390
N168        N  0.84123878  0.62245337  0.18230397    -0.06910
N169        N  0.86570869  0.61938561  0.20243231    -0.62290
N170        N  0.74101341  0.58665156  0.17827231    -0.06230
N171        N  0.71024364  0.58093732  0.19475358    -0.59010
N172        N  0.76955476  0.55728390  0.18027235    -0.07540
N173        N  0.75858472  0.53154763  0.19930776    -0.61850
N174        N  0.81097277  0.64963111  0.18659939    -0.06530
N175        N  0.81343296  0.66323607  0.21098871    -0.59040
Mn176      Mn  0.83175952  0.56637645  0.15951330     1.20190
Mn177      Mn  0.75367595  0.64697131  0.16136162     1.10090
Cl178      Cl  0.79574716  0.61038686  0.12596522    -0.87010
C179        C  0.84829111  0.64424604  0.22031611     0.95320
C180        C  0.72078377  0.54645202  0.20773026     0.95120
N181        N  0.20910370  0.31527049  0.91936604    -0.07160
N182        N  0.21042528  0.28433910  0.93581380    -0.59280
N183        N  0.14844878  0.38600295  0.89155636    -0.06840
N184        N  0.10967462  0.40064021  0.89372054    -0.61410
N185        N  0.14725155  0.34826314  0.88067443    -0.06440
N186        N  0.10849966  0.33687445  0.87510765    -0.59260
N187        N  0.21153366  0.35217253  0.93126251    -0.06120
N188        N  0.21385239  0.34635237  0.95662012    -0.61760
C189        C  0.21388716  0.30367300  0.95888222     0.95010
C190        C  0.08535805  0.36967875  0.88282901     0.94790
N191        N  0.23994101  0.47703438  0.86622595    -0.07350
N192        N  0.23965282  0.51665183  0.85871508    -0.59860
N193        N  0.27008523  0.43602525  0.92262518    -0.05470
N194        N  0.27853362  0.44975986  0.94630649    -0.61110
N195        N  0.30114485  0.44608583  0.90685092    -0.07380
N196        N  0.33112556  0.46712705  0.91973745    -0.60130
N197        N  0.20897449  0.46996780  0.88282390    -0.05110
N198        N  0.18760329  0.50517705  0.88666598    -0.61200
Mn199      Mn  0.20869460  0.41168522  0.90781282     1.18440
C200        C  0.20631994  0.53386697  0.87098487     0.97100
C201        C  0.31685689  0.46867569  0.94447041     0.97760
N202        N  0.19208293  0.29735134  0.83614215    -0.07400
N203        N  0.15992616  0.28525101  0.82131100    -0.63710
N204        N  0.28665576  0.27383208  0.86194223    -0.06200
N205        N  0.31397158  0.24303619  0.86062393    -0.64380
N206        N  0.25498678  0.26407284  0.87692329    -0.06900
N207        N  0.26020673  0.22624255  0.88654990    -0.63970
N208        N  0.22503460  0.30520129  0.82185773    -0.05800
N209        N  0.21675882  0.29870502  0.79729665    -0.64660
Mn210      Mn  0.20002664  0.30589198  0.87836770     1.10660
C211        C  0.17610825  0.28602871  0.79693049     0.98320
C212        C  0.29734247  0.21355827  0.87625747     0.98390
N213        N  0.34678183  0.39054957  0.86350741    -0.06910
N214        N  0.38659693  0.39760401  0.86933333    -0.62290
N215        N  0.27866491  0.38219817  0.81356729    -0.06230
N216        N  0.28652509  0.37541242  0.78908945    -0.59010
N217        N  0.29057779  0.42028786  0.82099542    -0.07540
N218        N  0.31046075  0.43838680  0.80129130    -0.61850
N219        N  0.34167074  0.35246892  0.85376226    -0.06530
N220        N  0.37755674  0.33265262  0.85277717    -0.59040
Mn221      Mn  0.29511068  0.43461821  0.86402716     1.20190
Mn222      Mn  0.28311565  0.32873532  0.83801203     1.10090
Cl223      Cl  0.24626859  0.37124273  0.87227020    -0.87010
C224        C  0.40508713  0.36111605  0.86244997     0.95320
C225        C  0.30683586  0.40987057  0.78130740     0.95120
N226        N  0.30218034  0.80050769  0.91233424    -0.07160
N227        N  0.31697173  0.76985447  0.92717274    -0.59280
N228        N  0.21490790  0.78201036  0.88453083    -0.06840
N229        N  0.19158847  0.74743421  0.88812140    -0.61410
N230        N  0.24590556  0.77321668  0.86839438    -0.06440
N231        N  0.24391749  0.73335136  0.86087624    -0.59260
N232        N  0.27376971  0.82133964  0.92548398    -0.06120
N233        N  0.27063732  0.80799574  0.94895995    -0.61760
C234        C  0.29723539  0.77613435  0.95044450     0.95010
C235        C  0.20942088  0.71746792  0.87268032     0.94790
N236        N  0.15913661  0.90324794  0.88070309    -0.07350
N237        N  0.12316406  0.90822248  0.86858500    -0.59860
N238        N  0.22476387  0.90241708  0.93271706    -0.05470
N239        N  0.24180869  0.90812864  0.95604398    -0.61110
N240        N  0.22110972  0.93901207  0.92156039    -0.07380
N241        N  0.23484499  0.96968675  0.93674568    -0.60130
N242        N  0.16069457  0.86576405  0.89081149    -0.05110
N243        N  0.12580385  0.84440693  0.88587863    -0.61200
Mn244      Mn  0.21740132  0.84282035  0.90882357     1.18440
C245        C  0.10268719  0.87119845  0.87195122     0.97100
C246        C  0.24767951  0.95058187  0.95833635     0.97760
N247        N  0.30482907  0.82557466  0.82633309    -0.07400
N248        N  0.32796684  0.81033850  0.80695336    -0.63710
N249        N  0.36040206  0.88946378  0.85985510    -0.06200
N250        N  0.40065513  0.90117471  0.85741766    -0.64380
N251        N  0.35867809  0.85225533  0.87080923    -0.06900
N252        N  0.39647015  0.83842924  0.87590288    -0.63970
N253        N  0.28965469  0.86171414  0.81916427    -0.05800
N254        N  0.29588752  0.86818455  0.79468982    -0.64660
Mn255      Mn  0.30364568  0.81198247  0.86914363     1.10660
C256        C  0.32167383  0.83796292  0.78730559     0.98320
C257        C  0.42270796  0.86865469  0.86751323     0.98390
N258        N  0.27071498  0.98484814  0.87978257    -0.06910
N259        N  0.27413594  0.02348050  0.88895505    -0.62290
N260        N  0.24210273  0.94027779  0.82442852    -0.06230
N261        N  0.23149826  0.93882969  0.79974439    -0.59010
N262        N  0.20912865  0.94910744  0.83857289    -0.07540
N263        N  0.17547874  0.95397447  0.82391628    -0.61850
N264        N  0.30405130  0.97509470  0.86605200    -0.06530
N265        N  0.33039768  0.00772657  0.86495625    -0.59040
Mn266      Mn  0.21381747  0.94485638  0.88040493     1.20190
Mn267      Mn  0.30071559  0.91718380  0.84230126     1.10090
Cl268      Cl  0.25912310  0.87917794  0.87529741    -0.87010
C269        C  0.31166755  0.03733709  0.88001439     0.95320
C270        C  0.18983132  0.94757668  0.79957322     0.95120
N271        N  0.68928922  0.27811694  0.90954943    -0.07160
N272        N  0.68498235  0.24581031  0.92512025    -0.59280
N273        N  0.64452770  0.35732490  0.87802509    -0.06840
N274        N  0.60788012  0.37550644  0.87802369    -0.61410
N275        N  0.64284380  0.32104229  0.86577997    -0.06440
N276        N  0.60432263  0.31347318  0.85726072    -0.59260
N277        N  0.68810769  0.31378564  0.92273475    -0.06120
N278        N  0.68257124  0.30633746  0.94762077    -0.61760
C279        C  0.68029566  0.26380254  0.94877984     0.95010
C280        C  0.58312122  0.34792254  0.86518412     0.94790
N281        N  0.73827170  0.44525660  0.87040915    -0.07350
N282        N  0.74005195  0.48499378  0.86399205    -0.59860
N283        N  0.74601198  0.39396120  0.92745123    -0.05470
N284        N  0.73697550  0.41101509  0.94987603    -0.61110
N285        N  0.78021317  0.41118189  0.91770615    -0.07380
N286        N  0.79382709  0.44175852  0.93340811    -0.60130
N287        N  0.70279276  0.43660816  0.88245917    -0.05110
N288        N  0.68011503  0.47120255  0.88477391    -0.61200
Mn289      Mn  0.69505812  0.37529227  0.90285621     1.18440
C290        C  0.70352444  0.50104453  0.87263085     0.97100
C291        C  0.76642074  0.44106345  0.95352645     0.97760
N292        N  0.70364073  0.28423425  0.82525240    -0.07400
N293        N  0.67255158  0.29217637  0.80914423    -0.63710
N294        N  0.78632759  0.24543749  0.85914483    -0.06200
N295        N  0.81131608  0.21233047  0.85976877    -0.64380
N296        N  0.74934571  0.23566444  0.86882443    -0.06900
N297        N  0.74852531  0.19629561  0.87640344    -0.63970
N298        N  0.74012703  0.29525006  0.81505672    -0.05800
N299        N  0.73387556  0.31105811  0.79182185    -0.64660
Mn300      Mn  0.69582290  0.27823398  0.86721007     1.10660
C301        C  0.69157455  0.30849361  0.78815257     0.98320
C302        C  0.78739442  0.18186093  0.87101565     0.98390
N303        N  0.84434860  0.36310493  0.88085692    -0.06910
N304        N  0.88025071  0.37377644  0.89185670    -0.62290
N305        N  0.80679372  0.36696456  0.82117082    -0.06230
N306        N  0.82402436  0.37093427  0.79818837    -0.59010
N307        N  0.80679070  0.40324094  0.83363205    -0.07540
N308        N  0.82490134  0.43260420  0.81930274    -0.61850
N309        N  0.84749725  0.32732999  0.86780047    -0.06530
N310        N  0.88645484  0.31358793  0.86959810    -0.59040
Mn311      Mn  0.79280036  0.40599133  0.87554156     1.20190
Mn312      Mn  0.79618052  0.30730522  0.84037701     1.10090
Cl313      Cl  0.74529628  0.34154905  0.87164478    -0.87010
C314        C  0.90625175  0.34261619  0.88508830     0.95320
C315        C  0.83455610  0.41197953  0.79703610     0.95120
N316        N  0.73859680  0.90847457  0.91354616    -0.07160
N317        N  0.71988407  0.92925201  0.93277722    -0.59280
N318        N  0.81440185  0.93731782  0.87479137    -0.06840
N319        N  0.83597553  0.97338235  0.87656151    -0.61410
N320        N  0.77715874  0.94415760  0.86449316    -0.06440
N321        N  0.77321974  0.98418504  0.85891486    -0.59260
N322        N  0.77586536  0.89638605  0.92145433    -0.06120
N323        N  0.78290096  0.90735123  0.94546138    -0.61760
C324        C  0.74795640  0.92709311  0.95276363     0.95010
C325        C  0.81017890  0.00223255  0.86596204     0.94790
N326        N  0.87313243  0.81934177  0.85998569    -0.07350
N327        N  0.90824329  0.81209935  0.84724264    -0.59860
N328        N  0.83527481  0.81925242  0.91988664    -0.05470
N329        N  0.84524672  0.81437458  0.94464323    -0.61110
N330        N  0.83218506  0.78229373  0.90839777    -0.07380
N331        N  0.84028758  0.75202595  0.92470036    -0.60130
N332        N  0.87395708  0.85732298  0.87015974    -0.05110
N333        N  0.90951533  0.87674760  0.86468629    -0.61200
Mn334      Mn  0.82564260  0.87784452  0.89665965     1.18440
C335        C  0.93034810  0.84851937  0.85000248     0.97100
C336        C  0.84830851  0.77190668  0.94744112     0.97760
N337        N  0.70948898  0.89320616  0.82812924    -0.07400
N338        N  0.68923965  0.91758506  0.81164103    -0.63710
N339        N  0.66625014  0.82304553  0.86406780    -0.06200
N340        N  0.62573094  0.81315158  0.86108737    -0.64380
N341        N  0.66959985  0.85958536  0.87646345    -0.06900
N342        N  0.63211388  0.87430145  0.88213485    -0.63970
N343        N  0.71327411  0.85543320  0.81769971    -0.05800
N344        N  0.69782975  0.85376221  0.79426421    -0.64660
Mn345      Mn  0.72326603  0.90192686  0.87081163     1.10660
C346        C  0.68335737  0.89240564  0.79033559     0.98320
C347        C  0.60478287  0.84547373  0.87254614     0.98390
N348        N  0.76606475  0.73433755  0.87295024    -0.06910
N349        N  0.76686437  0.69615315  0.88227102    -0.62290
N350        N  0.77496871  0.78110233  0.81469497    -0.06230
N351        N  0.78096742  0.78556544  0.78942912    -0.59010
N352        N  0.81065083  0.77125934  0.82569331    -0.07540
N353        N  0.84099489  0.76832859  0.80853260    -0.61850
N354        N  0.72902103  0.74178861  0.86278546    -0.06530
N355        N  0.70408204  0.70821812  0.86491015    -0.59040
Mn356      Mn  0.82063739  0.77588239  0.86696354     1.20190
Mn357      Mn  0.72029340  0.79931875  0.83974227     1.10090
Cl358      Cl  0.77179429  0.83882682  0.86886488    -0.87010
C359        C  0.72809635  0.67994057  0.87746734     0.95320
C360        C  0.82254050  0.77701191  0.78583007     0.95120
N361        N  0.95900789  0.43424941  0.67047884    -0.07160
N362        N  0.92719021  0.43831697  0.68651526    -0.59280
N363        N  0.04126096  0.47974916  0.64151314    -0.06840
N364        N  0.06452241  0.51440090  0.64132232    -0.61410
N365        N  0.00530419  0.48543097  0.62945491    -0.06440
N366        N  0.00343951  0.52412696  0.62079075    -0.59260
N367        N  0.99431237  0.42851398  0.68312277    -0.06120
N368        N  0.98677862  0.42854950  0.70833285    -0.61760
C369        C  0.94455515  0.43482391  0.71015940     0.95010
C370        C  0.04088597  0.54141404  0.62788461     0.94790
N371        N  0.11776690  0.37887675  0.62361074    -0.07350
N372        N  0.15699033  0.37485474  0.61594141    -0.59860
N373        N  0.06648302  0.36049634  0.67919875    -0.05470
N374        N  0.07499845  0.35329230  0.70364096    -0.61110
N375        N  0.07334330  0.32674140  0.66494166    -0.07380
N376        N  0.08686334  0.29588821  0.67944638    -0.60130
N377        N  0.11407599  0.41206284  0.63889434    -0.05110
N378        N  0.15145361  0.43075925  0.64207918    -0.61200
Mn379      Mn  0.05457458  0.42105351  0.66134816     1.18440
C380        C  0.17798116  0.40715568  0.62744686     0.97100
C381        C  0.08683172  0.31268411  0.70358210     0.97760
N382        N  0.95263689  0.43761488  0.58642779    -0.07400
N383        N  0.94547950  0.47009562  0.57160931    -0.63710
N384        N  0.91492144  0.35031850  0.61420489    -0.06200
N385        N  0.88272980  0.32398792  0.61613366    -0.64380
N386        N  0.90859255  0.38459571  0.62800078    -0.06900
N387        N  0.87174941  0.38218192  0.63967934    -0.63970
N388        N  0.95802737  0.40347063  0.57234818    -0.05800
N389        N  0.95475182  0.41217397  0.54753860    -0.64660
Mn390      Mn  0.95551238  0.43650130  0.62859554     1.10660
C391        C  0.94663628  0.45390506  0.54731885     0.98320
C392        C  0.85609480  0.34400003  0.63231926     0.98390
N393        N  0.02192874  0.27909873  0.62193136    -0.06910
N394        N  0.02744532  0.23988672  0.62860904    -0.62290
N395        N  0.02881889  0.33590440  0.56873139    -0.06230
N396        N  0.03051423  0.32677979  0.54393970    -0.59010
N397        N  0.06539017  0.32947665  0.57982251    -0.07540
N398        N  0.09255145  0.31521336  0.56253698    -0.61850
N399        N  0.98582014  0.28315990  0.60985940    -0.06530
N400        N  0.96618976  0.24626865  0.60784435    -0.59040
Mn401      Mn  0.07024704  0.32829148  0.62244551     1.20190
Mn402      Mn  0.97118954  0.34285131  0.59080710     1.10090
Cl403      Cl  0.01303622  0.38229155  0.62574966    -0.87010
C404        C  0.99256813  0.21973050  0.61987388     0.95320
C405        C  0.07046320  0.31458757  0.54008329     0.95120
N406        N  0.95420477  0.82437423  0.66029128    -0.07160
N407        N  0.93212000  0.79749954  0.67441206    -0.59280
N408        N  0.92424174  0.90889346  0.63148199    -0.06840
N409        N  0.89023954  0.93208191  0.63242607    -0.61410
N410        N  0.91758092  0.87511093  0.61681507    -0.06440
N411        N  0.87880433  0.87488239  0.60772881    -0.59260
N412        N  0.96363926  0.85830209  0.67414271    -0.06120
N413        N  0.94844501  0.85489423  0.69777890    -0.61760
C414        C  0.92942669  0.81666951  0.69787449     0.95010
C415        C  0.86252553  0.91106327  0.61710167     0.94790
N416        N  0.03123353  0.98241718  0.62421608    -0.07350
N417        N  0.03455829  0.02077262  0.61530459    -0.59860
N418        N  0.04203381  0.92462493  0.67731811    -0.05470
N419        N  0.05018606  0.92555010  0.70247482    -0.61110
N420        N  0.07717600  0.93057956  0.66427670    -0.07380
N421        N  0.10938316  0.93549862  0.68004294    -0.60130
N422        N  0.99556586  0.97733727  0.63653887    -0.05110
N423        N  0.97379169  0.01250463  0.63632736    -0.61200
Mn424      Mn  0.98104636  0.91772061  0.65563711     1.18440
C425        C  0.99851562  0.03939515  0.62279105     0.97100
C426        C  0.09263080  0.93226601  0.70386877     0.97760
N427        N  0.96931459  0.81611366  0.57425327    -0.07400
N428        N  0.95105348  0.78849934  0.55797744    -0.63710
N429        N  0.04703556  0.78055012  0.60731216    -0.06200
N430        N  0.06914401  0.74573232  0.60887687    -0.64380
N431        N  0.01064366  0.77556830  0.61916900    -0.06900
N432        N  0.00728165  0.73794900  0.62905359    -0.63970
N433        N  0.00466447  0.82949654  0.56386293    -0.05800
N434        N  0.00934002  0.81447335  0.54038298    -0.64660
Mn435      Mn  0.96182903  0.82232413  0.61746854     1.10660
C436        C  0.97619310  0.78892625  0.53656384     0.98320
C437        C  0.04405089  0.71980532  0.62293729     0.98390
N438        N  0.12677195  0.88444662  0.62011987    -0.06910
N439        N  0.16620249  0.88512205  0.62845287    -0.62290
N440        N  0.06862372  0.90006924  0.56618503    -0.06230
N441        N  0.05305108  0.90805153  0.54308748    -0.59010
N442        N  0.07377460  0.93525812  0.57955389    -0.07540
N443        N  0.06118893  0.96755010  0.56579833    -0.61850
N444        N  0.11903477  0.84958396  0.60710509    -0.06530
N445        N  0.15269222  0.82589064  0.60598874    -0.59040
Mn446      Mn  0.07861024  0.93390562  0.62206220     1.20190
Mn447      Mn  0.06076750  0.83967713  0.58606602     1.10090
Cl448      Cl  0.02050094  0.87815139  0.62057589    -0.87010
C449        C  0.18175912  0.84812038  0.61960031     0.95320
C450        C  0.04902960  0.95024999  0.54290812     0.95120
N451        N  0.44960463  0.32565436  0.67068351    -0.07160
N452        N  0.41727860  0.31520033  0.68591746    -0.59280
N453        N  0.42568510  0.40500629  0.63822557    -0.06840
N454        N  0.39080396  0.42739142  0.64074203    -0.61410
N455        N  0.41735559  0.37052654  0.62461233    -0.06440
N456        N  0.37760305  0.36901598  0.61760897    -0.59260
N457        N  0.47022378  0.35711876  0.68177028    -0.06120
N458        N  0.45554845  0.36570808  0.70477436    -0.61760
C459        C  0.42217009  0.34038116  0.70743372     0.95010
C460        C  0.36110376  0.40466664  0.62739103     0.94790
N461        N  0.54222710  0.46517534  0.62598053    -0.07350
N462        N  0.54855626  0.50097662  0.61435301    -0.59860
N463        N  0.54780270  0.41186035  0.68205481    -0.05470
N464        N  0.55451434  0.39947627  0.70608008    -0.61110
N465        N  0.58364450  0.41363979  0.66955139    -0.07380
N466        N  0.61508855  0.40302269  0.68469216    -0.60130
N467        N  0.50605852  0.46495039  0.63802708    -0.05110
N468        N  0.48701492  0.50119482  0.63536216    -0.61200
Mn469      Mn  0.48730448  0.41074045  0.66013550     1.18440
C470        C  0.51416310  0.52319736  0.62047036     0.97100
C471        C  0.59688595  0.39444103  0.70763229     0.97760
N472        N  0.46308923  0.30714161  0.58405471    -0.07400
N473        N  0.43518100  0.28870414  0.56828127    -0.63710
N474        N  0.53899477  0.26457487  0.61703524    -0.06200
N475        N  0.55627270  0.22708672  0.61765211    -0.64380
N476        N  0.50295358  0.26428531  0.62982937    -0.06900
N477        N  0.49538760  0.22672091  0.63920883    -0.63970
N478        N  0.49987160  0.31010234  0.57226771    -0.05800
N479        N  0.49738506  0.29408742  0.54864849    -0.64660
Mn480      Mn  0.45755609  0.31599038  0.62723729     1.10660
C481        C  0.45691505  0.28136717  0.54610732     0.98320
C482        C  0.52872940  0.20378186  0.63156835     0.98390
N483        N  0.62643782  0.36104488  0.62840018    -0.06910
N484        N  0.66380937  0.36105888  0.63910379    -0.62290
N485        N  0.57623724  0.37785197  0.57201945    -0.06230
N486        N  0.57737832  0.38711138  0.54704570    -0.59010
N487        N  0.58621731  0.41152898  0.58581908    -0.07540
N488        N  0.59450787  0.44376221  0.57104519    -0.61850
N489        N  0.61892590  0.32590163  0.61564626    -0.06530
N490        N  0.65200409  0.30105504  0.61722794    -0.59040
Mn491      Mn  0.58516053  0.41360746  0.62752900     1.20190
Mn492      Mn  0.55929242  0.31888927  0.59345853     1.10090
Cl493      Cl  0.52178481  0.36431746  0.62664524    -0.87010
C494        C  0.67961219  0.32354015  0.63227224     0.95320
C495        C  0.58901185  0.42861645  0.54690036     0.95120
N496        N  0.58170570  0.81306153  0.66596873    -0.07160
N497        N  0.61120693  0.82769438  0.68196254    -0.59280
N498        N  0.50172460  0.76106998  0.63273310    -0.06840
N499        N  0.48151517  0.72476417  0.63004706    -0.61410
N500        N  0.53864341  0.75964801  0.62159262    -0.06440
N501        N  0.54411246  0.72300486  0.61039039    -0.59260
N502        N  0.54484523  0.81301125  0.67750245    -0.06120
N503        N  0.54891541  0.82716351  0.70152135    -0.61760
C504        C  0.59038083  0.83598321  0.70427987     0.95010
C505        C  0.50835893  0.70153787  0.61568273     0.94790
N506        N  0.41847792  0.85924177  0.62036397    -0.07350
N507        N  0.37897471  0.86200389  0.61304833    -0.59860
N508        N  0.47372997  0.87087329  0.67734538    -0.05470
N509        N  0.46182853  0.86402152  0.70099006    -0.61110
N510        N  0.45408853  0.90267290  0.66724330    -0.07380
N511        N  0.42438653  0.91501090  0.68374821    -0.60130
N512        N  0.42471374  0.82438442  0.63324909    -0.05110
N513        N  0.38859831  0.80303766  0.63509054    -0.61200
Mn514      Mn  0.48562859  0.81596594  0.65524636     1.18440
C515        C  0.36060754  0.82676351  0.62200061     0.97100
C516        C  0.43037002  0.89028135  0.70481230     0.97760
N517        N  0.58232595  0.81172800  0.58119408    -0.07400
N518        N  0.57217873  0.77945069  0.56596066    -0.63710
N519        N  0.62155448  0.89795220  0.61314204    -0.06200
N520        N  0.65541898  0.92239726  0.61266866    -0.64380
N521        N  0.62963690  0.86247729  0.62448353    -0.06900
N522        N  0.66899517  0.86197863  0.63236619    -0.63970
N523        N  0.57470228  0.84722593  0.56949729    -0.05800
N524        N  0.55944599  0.83944223  0.54609896    -0.64660
Mn525      Mn  0.58452951  0.81051960  0.62352179     1.10660
C526        C  0.55837215  0.79706524  0.54394917     0.98320
C527        C  0.68453819  0.89977881  0.62523559     0.98390
N528        N  0.50902287  0.96200566  0.62849572    -0.06910
N529        N  0.50217947  0.99974226  0.63799306    -0.62290
N530        N  0.50605995  0.90997146  0.57129915    -0.06230
N531        N  0.50828078  0.91993027  0.54702678    -0.59010
N532        N  0.46972849  0.92007898  0.58147817    -0.07540
N533        N  0.44758953  0.94068100  0.56397897    -0.61850
N534        N  0.54533598  0.96100623  0.61615168    -0.06530
N535        N  0.56358440  0.99865696  0.61703385    -0.59040
Mn536      Mn  0.46174303  0.91218080  0.62429943     1.20190
Mn537      Mn  0.56286679  0.90493976  0.59237549     1.10090
Cl538      Cl  0.52353666  0.86100238  0.62381239    -0.87010
C539        C  0.53640168  0.02240266  0.63099317     0.95320
C540        C  0.47214008  0.93901876  0.54229827     0.95120
N541        N  0.06088037  0.17323596  0.33247180    -0.07160
N542        N  0.09025792  0.17554395  0.31479946    -0.59280
N543        N  0.99164362  0.22972755  0.36574327    -0.06840
N544        N  0.97671156  0.26843304  0.36579869    -0.61410
N545        N  0.03018563  0.23031374  0.37517735    -0.06440
N546        N  0.04175570  0.26837241  0.38239860    -0.59260
N547        N  0.02306086  0.17159970  0.32206761    -0.06120
N548        N  0.02627721  0.17267516  0.29653197    -0.61760
C549        C  0.06854857  0.17504184  0.29262450     0.95010
C550        C  0.00839343  0.29183038  0.37667628     0.94790
N551        N  0.90531696  0.13280811  0.38885179    -0.07350
N552        N  0.86614699  0.12972830  0.39700452    -0.59860
N553        N  0.94397371  0.11076283  0.33043422    -0.05470
N554        N  0.93207213  0.10426933  0.30630271    -0.61110
N555        N  0.93651386  0.07708762  0.34433326    -0.07380
N556        N  0.91888401  0.04705507  0.32957784    -0.60130
N557        N  0.90991053  0.16583213  0.37380226    -0.05110
N558        N  0.87316464  0.18500938  0.37141647    -0.61200
Mn559      Mn  0.96626575  0.17072395  0.34755513     1.18440
C560        C  0.84610930  0.16239719  0.38632814     0.97100
C561        C  0.91692598  0.06438577  0.30570540     0.97760
N562        N  0.08364255  0.18392442  0.41431262    -0.07400
N563        N  0.09339545  0.21815620  0.42768736    -0.63710
N564        N  0.10771913  0.09225605  0.38642229    -0.06200
N565        N  0.13825228  0.06471509  0.38456564    -0.64380
N566        N  0.11490250  0.12416211  0.37133258    -0.06900
N567        N  0.15071352  0.11920120  0.35879910    -0.63970
N568        N  0.07633972  0.15227711  0.42960143    -0.05800
N569        N  0.08114016  0.16417897  0.45401130    -0.64660
Mn570      Mn  0.07287142  0.17817154  0.37312460     1.10660
C571        C  0.09236332  0.20535589  0.45241996     0.98320
C572        C  0.16494026  0.08170145  0.36713640     0.98390
N573        N  0.99373358  0.02875385  0.38511238    -0.06910
N574        N  0.98612598  0.98912331  0.37902296    -0.62290
N575        N  0.00059207  0.09122437  0.43838730    -0.06230
N576        N  0.00732703  0.07832535  0.46195896    -0.59010
N577        N  0.96301055  0.07897334  0.43010525    -0.07540
N578        N  0.94548040  0.05444384  0.44788599    -0.61850
N579        N  0.03167822  0.03346445  0.39502328    -0.06530
N580        N  0.05098120  0.99721189  0.39554654    -0.59040
Mn581      Mn  0.94869682  0.07901362  0.38725687     1.20830
Mn582      Mn  0.05418019  0.09235410  0.41262557     1.10090
Cl583      Cl  0.00956227  0.13035518  0.38019006    -0.87010
C584        C  0.02218721  0.97007681  0.38552925     0.95320
C585        C  0.97328284  0.05523053  0.46797906     0.95120
N586        N  0.11768608  0.68333904  0.34500471    -0.07160
N587        N  0.15047815  0.68880817  0.32951110    -0.59280
N588        N  0.03659308  0.73198768  0.37373195    -0.06840
N589        N  0.01908282  0.76910422  0.37320382    -0.61410
N590        N  0.07224119  0.73367186  0.38652043    -0.06440
N591        N  0.08008432  0.77223497  0.39493415    -0.59260
N592        N  0.08243643  0.68298706  0.33154651    -0.06120
N593        N  0.09070786  0.68803449  0.30680890    -0.61760
C594        C  0.13318471  0.69153496  0.30555464     0.95010
C595        C  0.04641722  0.79361306  0.38662404     0.94790
N596        N  0.94598824  0.63747495  0.38117501    -0.07350
N597        N  0.90583097  0.63663452  0.38736704    -0.59860
N598        N  0.00129748  0.62535495  0.32616792    -0.05470
N599        N  0.98283828  0.63353514  0.30417056    -0.61110
N600        N  0.98439967  0.59155891  0.33659837    -0.07380
N601        N  0.95277579  0.57764018  0.32194236    -0.60130
N602        N  0.95601073  0.67240203  0.36914296    -0.05110
N603        N  0.92202596  0.69583164  0.36662212    -0.61200
Mn604      Mn  0.01925983  0.67850408  0.35003872     1.18440
C605        C  0.89129086  0.67339478  0.37871899     0.97100
C606        C  0.95239819  0.60416947  0.30174056     0.97760
N607        N  0.10183835  0.67643935  0.43001483    -0.07400
N608        N  0.08642219  0.70811127  0.44377975    -0.63710
N609        N  0.14585898  0.59062187  0.39954666    -0.06200
N610        N  0.17846366  0.56502794  0.40048143    -0.64380
N611        N  0.15705095  0.62619860  0.38876124    -0.06900
N612        N  0.19709949  0.62528797  0.38174914    -0.63970
N613        N  0.09095432  0.64049971  0.44075034    -0.05800
N614        N  0.06840322  0.64774894  0.46186780    -0.64660
Mn615      Mn  0.11411954  0.68024361  0.38776692     1.10660
C616        C  0.06559540  0.69002701  0.46363688     0.98320
C617        C  0.21010319  0.58679361  0.38885964     0.98390
N618        N  0.02988931  0.53083283  0.37671309    -0.06910
N619        N  0.01889659  0.49343361  0.36784527    -0.62290
N620        N  0.02043723  0.57546548  0.43444528    -0.06230
N621        N  0.01356295  0.56407903  0.45841522    -0.59010
N622        N  0.98529625  0.57455069  0.42109372    -0.07540
N623        N  0.95369689  0.56145224  0.43575440    -0.61850
N624        N  0.06429650  0.52890809  0.39100361    -0.06530
N625        N  0.07652570  0.48942737  0.39237206    -0.59040
Mn626      Mn  0.98644606  0.58315563  0.37893519     1.20190
Mn627      Mn  0.08203182  0.58298265  0.41675038     1.10090
Cl628      Cl  0.05071086  0.63086629  0.38306273    -0.87010
C629        C  0.04805788  0.46785822  0.37754948     0.95320
C630        C  0.97185064  0.55613968  0.45916155     0.95120
N631        N  0.58396486  0.07766041  0.34463360    -0.07160
N632        N  0.62278242  0.07620800  0.33470370    -0.59280
N633        N  0.59768166  0.15740656  0.37583983    -0.06840
N634        N  0.63454492  0.17708867  0.37267213    -0.61410
N635        N  0.60214157  0.12659281  0.39232864    -0.06440
N636        N  0.64131097  0.12516965  0.40053375    -0.59260
N637        N  0.56135153  0.10243389  0.33017278    -0.06120
N638        N  0.58136664  0.11230374  0.30900799    -0.61760
C639        C  0.62024929  0.09836526  0.31232497     0.95010
C640        C  0.66162645  0.15653746  0.38828902     0.94790
N641        N  0.47892655  0.21513907  0.37858843    -0.07350
N642        N  0.47320982  0.25123205  0.39080599    -0.59860
N643        N  0.48559261  0.15705386  0.32314610    -0.05470
N644        N  0.48482877  0.14296049  0.29892991    -0.61110
N645        N  0.44708411  0.15909619  0.33226654    -0.07380
N646        N  0.41954375  0.14615602  0.31469629    -0.60130
N647        N  0.51764483  0.21285755  0.36997186    -0.05110
N648        N  0.53930352  0.24695217  0.37617278    -0.61200
Mn649      Mn  0.54056311  0.15842013  0.34949020     1.18440
C650        C  0.51149821  0.27017102  0.38957459     0.97100
C651        C  0.44339395  0.13627627  0.29403935     0.97760
N652        N  0.54397848  0.06468485  0.42849312    -0.07400
N653        N  0.56282985  0.04821365  0.44891947    -0.63710
N654        N  0.48455052  0.01222659  0.38857265    -0.06200
N655        N  0.47413253  0.97172336  0.39058832    -0.64380
N656        N  0.52371916  0.01528545  0.37997834    -0.06900
N657        N  0.53969786  0.97794953  0.37578707    -0.63970
N658        N  0.50430558  0.07095922  0.43433507    -0.05800
N659        N  0.49631481  0.06278991  0.45843131    -0.64660
Mn660      Mn  0.56378930  0.07036432  0.38669629     1.10660
C661        C  0.53242502  0.04855637  0.46764963     0.98320
C662        C  0.50890664  0.95073654  0.38225639     0.98390
N663        N  0.39393662  0.10763286  0.36853973    -0.06910
N664        N  0.35759082  0.10688195  0.35643354    -0.62290
N665        N  0.43022939  0.12680076  0.42802597    -0.06230
N666        N  0.42984399  0.13506074  0.45321365    -0.59010
N667        N  0.42423695  0.16155840  0.41525273    -0.07540
N668        N  0.41913060  0.19376063  0.43133020    -0.61850
N669        N  0.40039641  0.07192870  0.38017623    -0.06530
N670        N  0.36745962  0.04639897  0.37666299    -0.59040
Mn671      Mn  0.43505548  0.16233354  0.37352718     1.20190
Mn672      Mn  0.45380627  0.06914595  0.40764117     1.10090
Cl673      Cl  0.49830981  0.11478734  0.37939050    -0.87010
C674        C  0.34139378  0.06842891  0.36111999     0.95320
C675        C  0.42213270  0.17691654  0.45512008     0.95120
N676        N  0.48479589  0.64486993  0.34027081    -0.07160
N677        N  0.46227572  0.66426974  0.32243287    -0.59280
N678        N  0.45469766  0.56626169  0.37480009    -0.06840
N679        N  0.41876619  0.54422764  0.37357546    -0.61410
N680        N  0.44827489  0.60182301  0.38743163    -0.06440
N681        N  0.40891969  0.60433515  0.39528368    -0.59260
N682        N  0.49913075  0.60962443  0.33030898    -0.06120
N683        N  0.48866280  0.60485272  0.30609155    -0.61760
C684        C  0.46625791  0.63891242  0.30109999     0.95010
C685        C  0.39073342  0.56808148  0.38706167     0.94790
N686        N  0.57211642  0.50386213  0.38630863    -0.07350
N687        N  0.57766281  0.46602564  0.39585370    -0.59860
N688        N  0.57562059  0.54968630  0.32956078    -0.05470
N689        N  0.58159381  0.54412026  0.30432963    -0.61110
N690        N  0.61222047  0.55055289  0.34142669    -0.07380
N691        N  0.64342189  0.54516595  0.32505788    -0.60130
N692        N  0.53413125  0.50654116  0.37653244    -0.05110
N693        N  0.51285891  0.47142986  0.37936140    -0.61200
Mn694      Mn  0.51566952  0.55736266  0.35261658     1.18440
C695        C  0.54015697  0.44645565  0.39134540     0.97100
C696        C  0.62415753  0.54091907  0.30198637     0.97760
N697        N  0.49838320  0.66494501  0.42641707    -0.07400
N698        N  0.47416661  0.68562509  0.44311854    -0.63710
N699        N  0.56981853  0.71080857  0.39281750    -0.06200
N700        N  0.58027327  0.75121778  0.39609325    -0.64380
N701        N  0.53401426  0.70808907  0.37983226    -0.06900
N702        N  0.52027082  0.74549783  0.37395765    -0.63970
N703        N  0.53537417  0.65877951  0.43711025    -0.05800
N704        N  0.53631931  0.67276559  0.46101671    -0.64660
Mn705      Mn  0.49090305  0.65533251  0.38341448     1.10660
C706        C  0.49817729  0.68903988  0.46491626     0.98320
C707        C  0.54907173  0.77240281  0.38390122     0.98390
N708        N  0.65986686  0.61234735  0.38005953    -0.06910
N709        N  0.69852589  0.61429084  0.37060314    -0.62290
N710        N  0.60957071  0.59615381  0.43699249    -0.06230
N711        N  0.60411453  0.58705958  0.46176843    -0.59010
N712        N  0.61936307  0.56177590  0.42413094    -0.07540
N713        N  0.62078260  0.52914613  0.43936784    -0.61850
N714        N  0.65070843  0.64787196  0.39199366    -0.06530
N715        N  0.68310988  0.67435548  0.39114754    -0.59040
Mn716      Mn  0.61709414  0.55686898  0.38282167     1.20190
Mn717      Mn  0.59244071  0.65403379  0.41499033     1.10090
Cl718      Cl  0.55415115  0.60651079  0.38321295    -0.87010
C719        C  0.71248353  0.65341314  0.37729673     0.95320
C720        C  0.61176223  0.54507315  0.46279742     0.95120
C721        C  0.49755689  0.83075847  0.38579725    -0.21350
C722        C  0.54013595  0.81833734  0.38593401    -0.07920
C723        C  0.57177634  0.84976361  0.38651110     0.12950
C724        C  0.56019353  0.89230809  0.38574207    -0.21400
C725        C  0.51761006  0.90478616  0.38472239    -0.07920
C726        C  0.48591296  0.87331608  0.38538705     0.12940
C727        C  0.43988538  0.88406220  0.38495326    -0.24750
H728        H  0.47291166  0.80686986  0.38582877     0.14230
H729        H  0.58495332  0.91604292  0.38576595     0.14260
C730        C  0.61772466  0.83873866  0.38702121    -0.24700
H731        H  0.41944521  0.85544040  0.38472282     0.04470
H732        H  0.43271542  0.90230644  0.36739839     0.07700
H733        H  0.43185689  0.90278598  0.40247838     0.07700
H734        H  0.62542072  0.81872566  0.36996841     0.07680
H735        H  0.62492423  0.82161106  0.40499157     0.07680
H736        H  0.63834011  0.86720617  0.38656590     0.04450
C737        C  0.54052781  0.37865968  0.41402292    -0.21350
C738        C  0.53373439  0.40113378  0.39132736    -0.07920
C739        C  0.51978185  0.38016311  0.36849903     0.12950
C740        C  0.51141731  0.33736276  0.36927422    -0.21400
C741        C  0.51725901  0.31512438  0.39192140    -0.07920
C742        C  0.53236675  0.33525183  0.41452147     0.12940
C743        C  0.53999052  0.31093788  0.43876609    -0.24750
H744        H  0.55168887  0.39505634  0.43123678     0.14230
H745        H  0.50090344  0.32080312  0.35191377     0.14260
C746        C  0.51514147  0.40196260  0.34289181    -0.24700
H747        H  0.55183291  0.33164657  0.45470712     0.04470
H748        H  0.56373470  0.28631004  0.43496209     0.07700
H749        H  0.51013794  0.29575308  0.44514157     0.07700
H750        H  0.54476751  0.41908814  0.33810574     0.07680
H751        H  0.48848103  0.42408616  0.34359490     0.07680
H752        H  0.50843862  0.37929421  0.32683914     0.04450
C753        C  0.82504858  0.67080986  0.35361802    -0.21350
C754        C  0.84556540  0.68069133  0.37700280    -0.07920
C755        C  0.82143195  0.68643194  0.39962401     0.12950
C756        C  0.77751264  0.68052646  0.39861029    -0.21400
C757        C  0.75734397  0.66698456  0.37574739    -0.07920
C758        C  0.78123974  0.66327632  0.35278784     0.12940
C759        C  0.76084500  0.65062921  0.32753826    -0.24750
H760        H  0.84375775  0.66570895  0.33637161     0.14230
H761        H  0.75924929  0.68361607  0.41619674     0.14260
C762        C  0.84231996  0.69709818  0.42507784    -0.24700
H763        H  0.78379873  0.65085143  0.31134688     0.04470
H764        H  0.73538058  0.67289448  0.32292384     0.07700
H765        H  0.74749761  0.61834219  0.32887114     0.07700
H766        H  0.86050888  0.72698348  0.42338352     0.07680
H767        H  0.86399456  0.67163585  0.43057578     0.07680
H768        H  0.81892273  0.70097509  0.44084228     0.04450
C769        C  0.27737834  0.56953739  0.41105849    -0.21350
C770        C  0.25508953  0.57366973  0.38782329    -0.07920
C771        C  0.27722981  0.56957441  0.36420397     0.12950
C772        C  0.32122801  0.56324460  0.36439491    -0.21400
C773        C  0.34398652  0.56221567  0.38768178    -0.07920
C774        C  0.32150151  0.56471620  0.41127806     0.12940
C775        C  0.34422329  0.56326939  0.43681302    -0.24750
H776        H  0.26054904  0.57264646  0.42917757     0.14230
H777        H  0.33828355  0.56203521  0.34628343     0.14260
C778        C  0.25451091  0.57257664  0.33876465    -0.24700
H779        H  0.32199035  0.56438482  0.45335642     0.04470
H780        H  0.36623086  0.59051672  0.43883399     0.07700
H781        H  0.36222208  0.53369013  0.43797176     0.07700
H782        H  0.24014559  0.60401391  0.33703462     0.07680
H783        H  0.22938018  0.54799876  0.33755519     0.07680
H784        H  0.27615724  0.56800683  0.32214230     0.04450
C785        C  0.77742857  0.12509789  0.38819887    -0.21350
C786        C  0.79886475  0.16361017  0.38532733    -0.07920
C787        C  0.77468646  0.20019334  0.38169540     0.12950
C788        C  0.73000073  0.19735065  0.38245607    -0.21400
C789        C  0.70883755  0.15876031  0.38659054    -0.07920
C790        C  0.73342361  0.12190210  0.38855926     0.12940
C791        C  0.71417667  0.07827831  0.39014072    -0.24750
H792        H  0.79540407  0.09656894  0.38999031     0.14230
H793        H  0.71155985  0.22548154  0.38022817     0.14260
C794        C  0.79569932  0.24222489  0.37762324    -0.24700
H795        H  0.73829689  0.05337178  0.38888591     0.04470
H796        H  0.69191688  0.07280327  0.37384409     0.07700
H797        H  0.69785649  0.07426005  0.40889536     0.07700
H798        H  0.81445179  0.24135570  0.35954145     0.07680
H799        H  0.81670277  0.25002251  0.39421122     0.07680
H800        H  0.77230933  0.26767456  0.37590273     0.04450
C801        C  0.22919196  0.08347424  0.34031249    -0.21350
C802        C  0.20798009  0.06627079  0.36150612    -0.07920
C803        C  0.23021977  0.03922247  0.37815024     0.12950
C804        C  0.27413784  0.03604350  0.37554956    -0.21400
C805        C  0.29607488  0.05896585  0.35680041    -0.07920
C806        C  0.27285553  0.07983392  0.33752021     0.12940
C807        C  0.29352933  0.09877913  0.31405047    -0.24750
H808        H  0.21184706  0.10196848  0.32655888     0.14230
H809        H  0.29168902  0.01867742  0.38973541     0.14260
C810        C  0.20893050  0.01561319  0.39966478    -0.24700
H811        H  0.26985087  0.11064373  0.30023125     0.04470
H812        H  0.31191316  0.07440177  0.30374569     0.07700
H813        H  0.31420248  0.12583476  0.31938935     0.07700
H814        H  0.18335703  0.99515452  0.39162116     0.07680
H815        H  0.19597802  0.03800400  0.41412845     0.07680
H816        H  0.23122103  0.99507615  0.40995826     0.04450
C817        C  0.00327235  0.85458683  0.39566455    -0.21350
C818        C  0.04235309  0.83889169  0.38820363    -0.07920
C819        C  0.07463514  0.86614460  0.37959318     0.12950
C820        C  0.06681001  0.90911087  0.37872764    -0.21400
C821        C  0.02748686  0.92480031  0.38585232    -0.07920
C822        C  0.99542467  0.89751109  0.39486580     0.12940
C823        C  0.95360007  0.91326502  0.40449562    -0.24750
H824        H  0.97875683  0.83304494  0.40201170     0.14230
H825        H  0.09123176  0.93054162  0.37210486     0.14260
C826        C  0.11644020  0.85006241  0.37019311    -0.24700
H827        H  0.93367759  0.88743919  0.41230584     0.04470
H828        H  0.93589300  0.92755125  0.38844260     0.07700
H829        H  0.95873109  0.93686554  0.42024880     0.07700
H830        H  0.11140197  0.82721306  0.35402103     0.07680
H831        H  0.13319046  0.83458902  0.38620433     0.07680
H832        H  0.13708902  0.87588556  0.36308494     0.04450
C833        C  0.03112448  0.35592168  0.39960172    -0.21350
C834        C  0.01228140  0.33779016  0.37749795    -0.07920
C835        C  0.00742579  0.36199816  0.35513083     0.12950
C836        C  0.02133309  0.40396916  0.35554267    -0.21400
C837        C  0.04057150  0.42209004  0.37756955    -0.07920
C838        C  0.04521851  0.39782648  0.40002561     0.12940
C839        C  0.06390564  0.41587414  0.42463237    -0.24750
H840        H  0.03573258  0.33669893  0.41649032     0.14230
H841        H  0.01720219  0.42288209  0.33848104     0.14260
C842        C  0.98951520  0.34332124  0.33049305    -0.24700
H843        H  0.06465815  0.39234542  0.44021684     0.04470
H844        H  0.04485853  0.44276485  0.43159827     0.07700
H845        H  0.09685633  0.42637861  0.42118320     0.07700
H846        H  0.95673953  0.33215385  0.33383756     0.07680
H847        H  0.00906564  0.31656686  0.32388291     0.07680
H848        H  0.98886291  0.36666730  0.31474383     0.04450
C849        C  0.49032904  0.00999876  0.52965103    -0.21350
C850        C  0.47503160  0.97016489  0.52183790    -0.07920
C851        C  0.48477818  0.95516081  0.49675807     0.12950
C852        C  0.51148889  0.97883263  0.48079718    -0.21400
C853        C  0.52701056  0.01859790  0.48862426    -0.07920
C854        C  0.51599871  0.03429156  0.51333372     0.12940
C855        C  0.53128929  0.07705944  0.52233132    -0.24750
H856        H  0.48488983  0.02074424  0.54931313     0.14230
H857        H  0.51713680  0.96796404  0.46115719     0.14260
C858        C  0.46686861  0.91375451  0.48696543    -0.24700
H859        H  0.52048449  0.08450197  0.54226096     0.04470
H860        H  0.51928262  0.10156944  0.50930368     0.07700
H861        H  0.56624520  0.07810896  0.52216628     0.07700
H862        H  0.43197146  0.91524452  0.48672677     0.07680
H863        H  0.47629821  0.88777917  0.49968421     0.07680
H864        H  0.47776934  0.90624883  0.46705560     0.04450
C865        C  0.51435929  0.73529649  0.53016105    -0.21350
C866        C  0.53469790  0.77321408  0.52347185    -0.07920
C867        C  0.53192020  0.78700297  0.49762391     0.12950
C868        C  0.51115391  0.76140667  0.47905119    -0.21400
C869        C  0.49484453  0.72154419  0.48531635    -0.07920
C870        C  0.49498126  0.70920324  0.51137094     0.12940
C871        C  0.47684358  0.66717091  0.51903210    -0.24750
H872        H  0.51510925  0.72506085  0.55003679     0.14230
H873        H  0.51238681  0.77019844  0.45888924     0.14260
C874        C  0.55412017  0.82649811  0.48886583    -0.24700
H875        H  0.47909348  0.66234685  0.54020351     0.04470
H876        H  0.49406686  0.64140587  0.50917462     0.07700
H877        H  0.44310198  0.66525945  0.51344168     0.07700
H878        H  0.58832116  0.82449487  0.49307018     0.07680
H879        H  0.54114812  0.85434612  0.49895913     0.07680
H880        H  0.55034469  0.83132165  0.46777782     0.04450
C881        C  0.57752890  0.48193001  0.48148932    -0.21350
C882        C  0.60424999  0.51727540  0.48504300    -0.07920
C883        C  0.62705604  0.52192085  0.50819610     0.12950
C884        C  0.62213153  0.49158947  0.52743972    -0.21400
C885        C  0.59501591  0.45634119  0.52419912    -0.07920
C886        C  0.57230404  0.45158178  0.50083557     0.12940
C887        C  0.54178698  0.41553433  0.49640792    -0.24750
H888        H  0.56060311  0.47808607  0.46339043     0.14230
H889        H  0.63985169  0.49549116  0.54522565     0.14260
C890        C  0.65774690  0.55794379  0.51223126    -0.24700
H891        H  0.52579808  0.41754653  0.47738140     0.04470
H892        H  0.51716537  0.41583207  0.51163543     0.07700
H893        H  0.55877796  0.38531504  0.49682069     0.07700
H894        H  0.64088357  0.58820213  0.51134386     0.07680
H895        H  0.68229873  0.55710215  0.49696206     0.07680
H896        H  0.67370907  0.55644076  0.53128977     0.04450
C897        C  0.41555723  0.26668910  0.50566635    -0.21350
C898        C  0.44296882  0.25243869  0.52477764    -0.07920
C899        C  0.46031619  0.21189649  0.52196339     0.12950
C900        C  0.45121128  0.18735450  0.49972197    -0.21400
C901        C  0.42585139  0.20245896  0.47968578    -0.07920
C902        C  0.40694113  0.24243070  0.48312076     0.12940
C903        C  0.37746150  0.25982511  0.46325630    -0.24750
H904        H  0.40214028  0.29766365  0.50790710     0.14230
H905        H  0.46552448  0.15679175  0.49753052     0.14260
C906        C  0.48882064  0.19452199  0.54241760    -0.24700
H907        H  0.36329905  0.28978548  0.46995776     0.04470
H908        H  0.35141243  0.23695555  0.45935464     0.07700
H909        H  0.39475108  0.26643450  0.44512410     0.07700
H910        H  0.47226092  0.19424730  0.56130222     0.07680
H911        H  0.51791844  0.21406771  0.54415453     0.07680
H912        H  0.49833866  0.16188749  0.53774584     0.04450
C913        C  0.54599398  0.63666996  0.62022773    -0.21350
C914        C  0.50765363  0.65578597  0.61484156    -0.07920
C915        C  0.47101126  0.63119817  0.61056835     0.12950
C916        C  0.47391062  0.58734003  0.61192167    -0.21400
C917        C  0.51255415  0.56851044  0.61742076    -0.07920
C918        C  0.54904119  0.59351370  0.62184469     0.12940
C919        C  0.59101551  0.57574877  0.62974785    -0.24750
H920        H  0.57384114  0.65576383  0.62417308     0.14230
H921        H  0.44611169  0.56774681  0.60883974     0.14260
C922        C  0.42949476  0.65089515  0.60423918    -0.24700
H923        H  0.61455059  0.60080971  0.63456029     0.04470
H924        H  0.60444196  0.55683358  0.61366554     0.07700
H925        H  0.58706428  0.55617625  0.64720753     0.07700
H926        H  0.43291174  0.67039355  0.58671593     0.07680
H927        H  0.41895234  0.67090344  0.62066022     0.07680
H928        H  0.40459930  0.62672232  0.60043052     0.04450
C929        C  0.57023196  0.13810941  0.63142526    -0.21350
C930        C  0.53079659  0.15748825  0.63353543    -0.07920
C931        C  0.49398811  0.13205935  0.63543529     0.12950
C932        C  0.49777324  0.08844447  0.63525066    -0.21400
C933        C  0.53693603  0.06890104  0.63265424    -0.07920
C934        C  0.57379941  0.09406618  0.63086887     0.12940
C935        C  0.61680653  0.07498600  0.62867062    -0.24750
H936        H  0.59837836  0.15753571  0.62987871     0.14230
H937        H  0.46929561  0.06940631  0.63631628     0.14260
C938        C  0.45015287  0.14987175  0.63643058    -0.24700
H939        H  0.64213547  0.09941559  0.62892771     0.04470
H940        H  0.61944946  0.05709797  0.61020285     0.07700
H941        H  0.62218781  0.05373091  0.64514911     0.07700
H942        H  0.44451845  0.16929811  0.61913388     0.07680
H943        H  0.44614126  0.16894901  0.65434433     0.07680
H944        H  0.42541169  0.12484592  0.63658196     0.04450
C945        C  0.01056701  0.99070624  0.47820432    -0.21350
C946        C  0.98021263  0.02015470  0.48595983    -0.07920
C947        C  0.96999925  0.02370889  0.51238122     0.12950
C948        C  0.99228652  0.99994890  0.53057856    -0.21400
C949        C  0.02481832  0.97282431  0.52289265    -0.07920
C950        C  0.03328458  0.96744978  0.49628203     0.12940
C951        C  0.06844407  0.93973827  0.48696390    -0.24750
H952        H  0.01925952  0.98874887  0.45795844     0.14230
H953        H  0.98493455  0.00328042  0.55093298     0.14260
C954        C  0.93653063  0.05355407  0.52133017    -0.24700
H955        H  0.07231251  0.94098544  0.46565834     0.04470
H956        H  0.06169789  0.90660116  0.49209255     0.07700
H957        H  0.09863452  0.95018863  0.49601270     0.07700
H958        H  0.90616147  0.04502993  0.51180975     0.07680
H959        H  0.94548398  0.08623549  0.51622823     0.07680
H960        H  0.93191489  0.05234193  0.54257646     0.04450
C961        C  0.98605546  0.76897972  0.49131482    -0.21350
C962        C  0.98137605  0.75520210  0.51677817    -0.07920
C963        C  0.00040305  0.71690950  0.52363314     0.12950
C964        C  0.02637501  0.69567384  0.50567319    -0.21400
C965        C  0.03491798  0.71218454  0.48110338    -0.07920
C966        C  0.01263968  0.74846741  0.47353919     0.12940
C967        C  0.01712253  0.76674258  0.44701843    -0.24750
H968        H  0.97222963  0.79870174  0.48610617     0.14230
H969        H  0.04214105  0.66732334  0.51145994     0.14260
C970        C  0.99607551  0.70014776  0.55059441    -0.24700
H971        H  0.99557521  0.79347462  0.44411295     0.04470
H972        H  0.00944510  0.74237466  0.43212215     0.07700
H973        H  0.04969661  0.77890280  0.44437292     0.07700
H974        H  0.96226475  0.69473684  0.55506275     0.07680
H975        H  0.00969268  0.72297606  0.56480649     0.07680
H976        H  0.01267899  0.66990047  0.55279887     0.04450
C977        C  0.79954381  0.90142837  0.64312358    -0.21350
C978        C  0.81727520  0.91595538  0.62014550    -0.07920
C979        C  0.79145362  0.93020785  0.60012949     0.12950
C980        C  0.74763861  0.92766095  0.60311673    -0.21400
C981        C  0.72976585  0.90980718  0.62532145    -0.07920
C982        C  0.75599544  0.89752613  0.64583825     0.12940
C983        C  0.73838608  0.88028473  0.67056816    -0.24750
H984        H  0.81999199  0.89082701  0.65844664     0.14230
H985        H  0.72742916  0.93717459  0.58741924     0.14260
C986        C  0.81017205  0.94703795  0.57558816    -0.24700
H987        H  0.76319361  0.87637387  0.68545705     0.04470
H988        H  0.72333274  0.84906135  0.66708726     0.07700
H989        H  0.71487116  0.90250704  0.67822384     0.07700
H990        H  0.82920623  0.92238841  0.56593805     0.07680
H991        H  0.83071734  0.97468264  0.58016125     0.07680
H992        H  0.78542644  0.95700302  0.56188001     0.04450
C993        C  0.29364377  0.82702477  0.59815657    -0.21350
C994        C  0.31414615  0.82194157  0.62188896    -0.07920
C995        C  0.29010644  0.82297433  0.64492543     0.12950
C996        C  0.24663870  0.83065519  0.64369606    -0.21400
C997        C  0.22671974  0.83718212  0.62000030    -0.07920
C998        C  0.25024664  0.83441248  0.59689028     0.12940
C999        C  0.23022291  0.84170441  0.57094086    -0.24750
H1000       H  0.31214424  0.82726691  0.58057256     0.14230
H1001       H  0.22830388  0.83266168  0.66132439     0.14260
C1002       C  0.31041448  0.81876747  0.67090760    -0.24700
H1003       H  0.25363168  0.84033867  0.55503192     0.04470
H1004       H  0.21559321  0.87321143  0.57077736     0.07700
H1005       H  0.20579389  0.81719651  0.56694973     0.07700
H1006       H  0.33361786  0.84477837  0.67386845     0.07680
H1007       H  0.32607961  0.78788121  0.67185322     0.07680
H1008       H  0.28711105  0.82042824  0.68687458     0.04450
C1009       C  0.94925114  0.52409151  0.52715970    -0.21350
C1010       C  0.94435908  0.48028409  0.52384192    -0.07920
C1011       C  0.93979266  0.46345861  0.49842545     0.12950
C1012       C  0.94375278  0.49040712  0.47723461    -0.21400
C1013       C  0.95299234  0.53327317  0.48081745    -0.07920
C1014       C  0.95429102  0.55060452  0.50597818     0.12940
C1015       C  0.96246990  0.59693304  0.51047558    -0.24750
H1016       H  0.95172011  0.53758650  0.54643318     0.14230
H1017       H  0.94314678  0.47736584  0.45777548     0.14260
C1018       C  0.93196556  0.41729226  0.49321102    -0.24700
H1019       H  0.96170281  0.60552793  0.53134206     0.04470
H1020       H  0.93806575  0.61533081  0.50045276     0.07700
H1021       H  0.99394249  0.60584441  0.50289348     0.07700
H1022       H  0.90340666  0.40660118  0.50374129     0.07680
H1023       H  0.95960907  0.39898291  0.49932095     0.07680
H1024       H  0.92687086  0.41050818  0.47232102     0.04450
C1025       C  0.10738465  0.25521298  0.51898153    -0.21350
C1026       C  0.08284011  0.29136708  0.51646104    -0.07920
C1027       C  0.06533001  0.30083728  0.49209329     0.12950
C1028       C  0.07129794  0.27301926  0.47131939    -0.21400
C1029       C  0.09274512  0.23522361  0.47441093    -0.07920
C1030       C  0.11201708  0.22660933  0.49828295     0.12940
C1031       C  0.13741854  0.18752375  0.50197759    -0.24750
H1032       H  0.12079894  0.24791066  0.53761357     0.14230
H1033       H  0.05695263  0.27973381  0.45283302     0.14260
C1034       C  0.03951039  0.33960592  0.48776726    -0.24700
H1035       H  0.15172620  0.18670819  0.52154963     0.04470
H1036       H  0.16324661  0.18643832  0.48753940     0.07700
H1037       H  0.11697038  0.15917633  0.49964051     0.07700
H1038       H  0.05766068  0.36811865  0.49387016     0.07680
H1039       H  0.00950325  0.33767859  0.49861647     0.07680
H1040       H  0.03081842  0.34292238  0.46713808     0.04450
C1041       C  0.03329583  0.61000924  0.64880412    -0.21350
C1042       C  0.04882687  0.58670427  0.62793019    -0.07920
C1043       C  0.06841662  0.60709875  0.60710215     0.12950
C1044       C  0.06970544  0.65119821  0.60688301    -0.21400
C1045       C  0.05101813  0.67474309  0.62685389    -0.07920
C1046       C  0.03393301  0.65390090  0.64856786     0.12940
C1047       C  0.01594935  0.67739682  0.67149270    -0.24750
H1048       H  0.01890375  0.59367392  0.66487980     0.14230
H1049       H  0.08285592  0.66717267  0.59032565     0.14260
C1050       C  0.08660398  0.58233943  0.58488051    -0.24700
H1051       H  0.00808420  0.65590910  0.68757740     0.04470
H1052       H  0.98640144  0.69323449  0.66609412     0.07700
H1053       H  0.03929621  0.70094789  0.67884153     0.07700
H1054       H  0.06145545  0.56299773  0.57543991     0.07680
H1055       H  0.11152117  0.56134975  0.59211226     0.07680
H1056       H  0.10078200  0.60322089  0.57012346     0.04450
C1057       C  0.95584741  0.15139170  0.62748606    -0.21350
C1058       C  0.99041475  0.17365586  0.61748877    -0.07920
C1059       C  0.02424216  0.15151547  0.60635687     0.12950
C1060       C  0.02409528  0.10777114  0.60721032    -0.21400
C1061       C  0.99156224  0.08508854  0.61931795    -0.07920
C1062       C  0.95598306  0.10714126  0.62867384     0.12940
C1063       C  0.91845084  0.08480820  0.64014420    -0.24750
H1064       H  0.92958311  0.16874490  0.63540584     0.14230
H1065       H  0.05078181  0.09138188  0.59909604     0.14260
C1066       C  0.06079647  0.17364848  0.59337986    -0.24700
H1067       H  0.89303797  0.10704763  0.64530833     0.04470
H1068       H  0.92775760  0.06863394  0.65806998     0.07700
H1069       H  0.90533806  0.06163416  0.62593639     0.07700
H1070       H  0.07977700  0.19174142  0.60780760     0.07680
H1071       H  0.04892275  0.19510261  0.57837977     0.07680
H1072       H  0.08234071  0.15110201  0.58377483     0.04450
C1073       C  0.74411497  0.33794590  0.65697969    -0.21350
C1074       C  0.72469166  0.31503397  0.63669860    -0.07920
C1075       C  0.75011622  0.29376073  0.61855417     0.12950
C1076       C  0.79387511  0.30080086  0.61919616    -0.21400
C1077       C  0.81238671  0.32933876  0.63706453    -0.07920
C1078       C  0.78751956  0.34593123  0.65728184     0.12940
C1079       C  0.80577599  0.37324082  0.67873793    -0.24750
H1080       H  0.72473691  0.35319364  0.67134026     0.14230
H1081       H  0.81312016  0.28665029  0.60427023     0.14260
C1082       C  0.73153069  0.26627146  0.59741428    -0.24700
H1083       H  0.78203522  0.38054841  0.69380875     0.04470
H1084       H  0.81689945  0.40380603  0.67108924     0.07700
H1085       H  0.83219862  0.35686659  0.68817691     0.07700
H1086       H  0.71185547  0.28529247  0.58440721     0.07680
H1087       H  0.71210079  0.24080273  0.60603510     0.07680
H1088       H  0.75633893  0.25134496  0.58543309     0.04450
C1089       C  0.24778864  0.44637644  0.62823790    -0.21350
C1090       C  0.22489854  0.40815102  0.62937912    -0.07920
C1091       C  0.24742077  0.37028478  0.63217386     0.12950
C1092       C  0.29136884  0.37137121  0.63231734    -0.21400
C1093       C  0.31452110  0.40892314  0.62975408    -0.07920
C1094       C  0.29249002  0.44715841  0.62827829     0.12940
C1095       C  0.31588789  0.48830795  0.62578474    -0.24750
H1096       H  0.23073948  0.47547940  0.62650116     0.14230
H1097       H  0.30794852  0.34200318  0.63418805     0.14260
C1098       C  0.22579640  0.32811392  0.63548649    -0.24700
H1099       H  0.29398074  0.51506030  0.62417662     0.04470
H1100       H  0.33596359  0.48753351  0.60823207     0.07700
H1101       H  0.33601936  0.49393089  0.64305867     0.07700
H1102       H  0.21023629  0.31797430  0.61720450     0.07680
H1103       H  0.20226906  0.33018365  0.65122571     0.07680
H1104       H  0.24831846  0.30316044  0.64063032     0.04450
C1105       C  0.61354118  0.87689614  0.77292765    -0.21350
C1106       C  0.65250358  0.89742429  0.76937050    -0.07920
C1107       C  0.66722305  0.90337311  0.74403781     0.12950
C1108       C  0.64533106  0.88458030  0.72308652    -0.21400
C1109       C  0.60900733  0.85953007  0.72688904    -0.07920
C1110       C  0.59173357  0.85756463  0.75214082     0.12940
C1111       C  0.55211551  0.83272687  0.75784452    -0.24750
H1112       H  0.60260900  0.87171878  0.79249213     0.14230
H1113       H  0.65752405  0.88811453  0.70376257     0.14260
C1114       C  0.70752429  0.92763236  0.73953340    -0.24700
H1115       H  0.54468574  0.83285149  0.77881699     0.04470
H1116       H  0.55588757  0.79949906  0.75150628     0.07700
H1117       H  0.52495349  0.84667540  0.74773802     0.07700
H1118       H  0.73439411  0.91128769  0.74849690     0.07680
H1119       H  0.70496419  0.95958760  0.74825222     0.07680
H1120       H  0.71423301  0.93126167  0.71870251     0.04450
C1121       C  0.89230541  0.78880844  0.76521996    -0.21350
C1122       C  0.84830456  0.78440667  0.76196804    -0.07920
C1123       C  0.83150289  0.78796710  0.73671662     0.12950
C1124       C  0.85894969  0.79618579  0.71578795    -0.21400
C1125       C  0.90254765  0.80210420  0.71955369    -0.07920
C1126       C  0.91929865  0.79811051  0.74457568     0.12940
C1127       C  0.96588402  0.80340695  0.74958486    -0.24750
H1128       H  0.90597462  0.78614998  0.78429533     0.14230
H1129       H  0.84611358  0.79972590  0.69654952     0.14260
C1130       C  0.78497934  0.78339683  0.73162036    -0.24700
H1131       H  0.97394443  0.79788005  0.77013653     0.04470
H1132       H  0.97629009  0.83584676  0.74489266     0.07700
H1133       H  0.98356660  0.78061423  0.73747375     0.07700
H1134       H  0.76779625  0.80878627  0.74186369     0.07680
H1135       H  0.77351302  0.75228034  0.73832683     0.07680
H1136       H  0.77761016  0.78569962  0.71070980     0.04450
C1137       C  0.62629221  0.34298429  0.77209989    -0.21350
C1138       C  0.66788127  0.33009101  0.76717139    -0.07920
C1139       C  0.68563822  0.33891860  0.74277870     0.12950
C1140       C  0.66186637  0.36057404  0.72434843    -0.21400
C1141       C  0.62020101  0.37346590  0.72914730    -0.07920
C1142       C  0.60228398  0.36432882  0.75356229     0.12940
C1143       C  0.55812328  0.37703252  0.76053612    -0.24750
H1144       H  0.61238192  0.33661085  0.79075781     0.14230
H1145       H  0.67599026  0.36692220  0.70582419     0.14260
C1146       C  0.72909084  0.32436088  0.73558136    -0.24700
H1147       H  0.55004414  0.36884807  0.78074928     0.04470
H1148       H  0.53510344  0.36042247  0.74773073     0.07700
H1149       H  0.55490500  0.41156003  0.75863747     0.07700
H1150       H  0.73121111  0.28987206  0.73818440     0.07680
H1151       H  0.75311051  0.34077648  0.74773009     0.07680
H1152       H  0.73664743  0.33094068  0.71514617     0.04450
C1153       C  0.90635296  0.42466092  0.78021910    -0.21350
C1154       C  0.86270660  0.42792192  0.77668174    -0.07920
C1155       C  0.84682973  0.43733240  0.75212454     0.12950
C1156       C  0.87477505  0.44153443  0.73134039    -0.21400
C1157       C  0.91848203  0.43544631  0.73421232    -0.07920
C1158       C  0.93455948  0.42816910  0.75931503     0.12940
C1159       C  0.98086253  0.42254396  0.76429076    -0.24750
H1160       H  0.91818115  0.41677270  0.79916943     0.14230
H1161       H  0.86184258  0.44794897  0.71245129     0.14260
C1162       C  0.80018078  0.44162967  0.74770920    -0.24700
H1163       H  0.98752809  0.41776657  0.78510921     0.04470
H1164       H  0.99865819  0.45099523  0.75818396     0.07700
H1165       H  0.99227112  0.39448620  0.75355825     0.07700
H1166       H  0.78790130  0.46726866  0.76024569     0.07680
H1167       H  0.78362786  0.41179577  0.75244844     0.07680
H1168       H  0.79289864  0.44914884  0.72730830     0.04450
C1169       C  0.73687847  0.56319417  0.89170575    -0.21350
C1170       C  0.70187987  0.54647625  0.87865623    -0.07920
C1171       C  0.67167561  0.57385456  0.86865393     0.12950
C1172       C  0.67954231  0.61770815  0.86984442    -0.21400
C1173       C  0.71715207  0.63439622  0.88068285    -0.07920
C1174       C  0.74529145  0.60627281  0.89269763     0.12940
C1175       C  0.78465520  0.62048134  0.90661583    -0.24750
H1176       H  0.75939298  0.54183194  0.89998975     0.14230
H1177       H  0.65718493  0.63873702  0.86118520     0.14260
C1178       C  0.63230694  0.55676395  0.85598652    -0.24700
H1179       H  0.80067512  0.59431631  0.91641768     0.04470
H1180       H  0.77548263  0.64348912  0.92165377     0.07700
H1181       H  0.80783598  0.63410059  0.89292802     0.07700
H1182       H  0.61411860  0.53778508  0.87008411     0.07680
H1183       H  0.64065727  0.53655974  0.83916056     0.07680
H1184       H  0.61187575  0.58238158  0.84912611     0.04450
C1185       C  0.78394665  0.06541978  0.88840118    -0.21350
C1186       C  0.81291583  0.04836520  0.87088698    -0.07920
C1187       C  0.83792492  0.07585877  0.85601038     0.12950
C1188       C  0.83092761  0.11967350  0.85752356    -0.21400
C1189       C  0.79912677  0.13655468  0.87346472    -0.07920
C1190       C  0.77679117  0.10884787  0.89006023     0.12940
C1191       C  0.74489321  0.12419782  0.90952371    -0.24750
H1192       H  0.76520936  0.04420657  0.90008828     0.14230
H1193       H  0.84887703  0.14048448  0.84517826     0.14260
C1194       C  0.87062393  0.05878411  0.83782841    -0.24700
H1195       H  0.73411250  0.09865322  0.92246803     0.04470
H1196       H  0.71653204  0.13588933  0.89955316     0.07700
H1197       H  0.75907884  0.14947576  0.92186745     0.07700
H1198       H  0.85542407  0.03768780  0.82321130     0.07680
H1199       H  0.89411124  0.04073706  0.84887772     0.07680
H1200       H  0.88751977  0.08434999  0.82753492     0.04450
C1201       C  0.09685238  0.93625829  0.75213458    -0.21350
C1202       C  0.11785907  0.93685425  0.72825047    -0.07920
C1203       C  0.16250646  0.94191091  0.72827773     0.12950
C1204       C  0.18416600  0.94622048  0.75183479    -0.21400
C1205       C  0.16330058  0.94543517  0.77567861    -0.07920
C1206       C  0.11880357  0.94031532  0.77575527     0.12940
C1207       C  0.09403943  0.93770117  0.80045651    -0.24750
H1208       H  0.06290674  0.93228261  0.75239068     0.14230
H1209       H  0.21811720  0.95002409  0.75156656     0.14260
C1210       C  0.18845740  0.94242462  0.70384060    -0.24700
H1211       H  0.05988681  0.93247771  0.79677959     0.04470
H1212       H  0.09756772  0.96749220  0.81170810     0.07700
H1213       H  0.10532938  0.91092222  0.81196966     0.07700
H1214       H  0.17957215  0.96952886  0.69182064     0.07680
H1215       H  0.18384079  0.91243842  0.69290101     0.07680
H1216       H  0.22270051  0.94578094  0.70789721     0.04450
C1217       C  0.36025440  0.82208938  0.74681071    -0.21350
C1218       C  0.35242519  0.84975926  0.76719410    -0.07920
C1219       C  0.36924848  0.89176821  0.76632217     0.12950
C1220       C  0.39082469  0.90537652  0.74436066    -0.21400
C1221       C  0.39861183  0.87780885  0.72399515    -0.07920
C1222       C  0.38454347  0.83499336  0.72566858     0.12940
C1223       C  0.39734730  0.80157372  0.70633953    -0.24750
H1224       H  0.34789534  0.79021153  0.74761871     0.14230
H1225       H  0.40389442  0.93702403  0.74373436     0.14260
C1226       C  0.36662489  0.92237937  0.78887035    -0.24700
H1227       H  0.37688766  0.77306632  0.70752983     0.04470
H1228       H  0.43010200  0.79180158  0.71029980     0.07700
H1229       H  0.39565470  0.81357298  0.68643193     0.07700
H1230       H  0.37640029  0.90668373  0.80683864     0.07680
H1231       H  0.33433194  0.93477509  0.79094282     0.07680
H1232       H  0.38783530  0.95007054  0.78630517     0.04450
C1233       C  0.49628936  0.89800725  0.86897958    -0.21350
C1234       C  0.46940877  0.86289062  0.86684358    -0.07920
C1235       C  0.48769590  0.82224938  0.86496578     0.12950
C1236       C  0.53162533  0.81801402  0.86665468    -0.21400
C1237       C  0.55842208  0.85284317  0.87026201    -0.07920
C1238       C  0.54037872  0.89370572  0.87075053     0.12940
C1239       C  0.56695319  0.93329731  0.87254251    -0.24750
H1240       H  0.48262215  0.92903578  0.86991033     0.14230
H1241       H  0.54516050  0.78694885  0.86557827     0.14260
C1242       C  0.46164236  0.78273700  0.86054705    -0.24700
H1243       H  0.54762050  0.96200594  0.87108327     0.04470
H1244       H  0.59012651  0.93387645  0.85648492     0.07700
H1245       H  0.58345682  0.93504018  0.89142920     0.07700
H1246       H  0.44116737  0.78633901  0.84334193     0.07680
H1247       H  0.44229253  0.77586284  0.87784931     0.07680
H1248       H  0.48161459  0.75485615  0.85699520     0.04450
C1249       C  0.99918632  0.81668965  0.85501206    -0.21350
C1250       C  0.97596721  0.85133039  0.84713742    -0.07920
C1251       C  0.99626110  0.89031194  0.84322341     0.12950
C1252       C  0.03827390  0.89515656  0.85063738    -0.21400
C1253       C  0.06045137  0.86181174  0.86148014    -0.07920
C1254       C  0.04123456  0.82137359  0.86255100     0.12940
C1255       C  0.06352892  0.78326090  0.87250784    -0.24750
H1256       H  0.98336443  0.78665295  0.85765526     0.14230
H1257       H  0.05306210  0.92588677  0.84912316     0.14260
C1258       C  0.97363020  0.92696419  0.83165334    -0.24700
H1259       H  0.04368308  0.75433264  0.87074187     0.04470
H1260       H  0.07115387  0.78765827  0.89331319     0.07700
H1261       H  0.09269098  0.77784563  0.86120052     0.07700
H1262       H  0.94816493  0.93798673  0.84459101     0.07680
H1263       H  0.96002625  0.91735719  0.81266789     0.07680
H1264       H  0.99531896  0.95408955  0.82845671     0.04450
C1265       C  0.17487175  0.29122095  0.74937550    -0.21350
C1266       C  0.15251563  0.28175970  0.77211671    -0.07920
C1267       C  0.10878536  0.27294250  0.77021473     0.12950
C1268       C  0.08769990  0.28108243  0.74695411    -0.21400
C1269       C  0.10989235  0.29500492  0.72529273    -0.07920
C1270       C  0.15411705  0.29789222  0.72604370     0.12940
C1271       C  0.17932390  0.31036566  0.70263497    -0.24750
H1272       H  0.20873323  0.29583871  0.74998495     0.14230
H1273       H  0.05374199  0.27775871  0.74586851     0.14260
C1274       C  0.08423499  0.25486607  0.79223376    -0.24700
H1275       H  0.21368464  0.31168294  0.70669942     0.04470
H1276       H  0.16969473  0.34191091  0.69611139     0.07700
H1277       H  0.17380832  0.28695553  0.68684678     0.07700
H1278       H  0.08481859  0.27731807  0.80848335     0.07680
H1279       H  0.09842909  0.22486296  0.79824226     0.07680
H1280       H  0.05078349  0.24861699  0.78700522     0.04450
C1281       C  0.40564978  0.37284604  0.74956356    -0.21350
C1282       C  0.38985970  0.35422029  0.72654380    -0.07920
C1283       C  0.34721439  0.36080466  0.72009426     0.12950
C1284       C  0.32162832  0.38435427  0.73710708    -0.21400
C1285       C  0.33754046  0.40267686  0.76018969    -0.07920
C1286       C  0.38052354  0.39725436  0.76612402     0.12940
C1287       C  0.39988092  0.41574782  0.79043198    -0.24750
H1288       H  0.43866273  0.36915864  0.75433050     0.14230
H1289       H  0.28829706  0.38690943  0.73297126     0.14260
C1290       C  0.32863109  0.34386279  0.69524215    -0.24700
H1291       H  0.43414991  0.40948837  0.79164610     0.04470
H1292       H  0.38465368  0.40193457  0.80769441     0.07700
H1293       H  0.39584257  0.45035295  0.79077135     0.07700
H1294       H  0.33121903  0.30910671  0.69453774     0.07680
H1295       H  0.34567925  0.35762637  0.67860931     0.07680
H1296       H  0.29482294  0.35179621  0.69332199     0.04450
C1297       C  0.51566815  0.33220348  0.84439114    -0.21350
C1298       C  0.53752407  0.35088034  0.86507035    -0.07920
C1299       C  0.51542141  0.37037193  0.88571236     0.12950
C1300       C  0.47186061  0.37250336  0.88423559    -0.21400
C1301       C  0.45014739  0.35482615  0.86326884    -0.07920
C1302       C  0.47189639  0.33360222  0.84325247     0.12940
C1303       C  0.44973854  0.31340394  0.82036153    -0.24750
H1304       H  0.53297249  0.31683292  0.82897391     0.14230
H1305       H  0.45449324  0.38793827  0.89962998     0.14260
C1306       C  0.53668424  0.38785097  0.90977160    -0.24700
H1307       H  0.47235792  0.30040497  0.80607934     0.04470
H1308       H  0.43038766  0.33687835  0.81033668     0.07700
H1309       H  0.42937091  0.28698881  0.82687108     0.07700
H1310       H  0.55655155  0.41560599  0.90497742     0.07680
H1311       H  0.55608797  0.36322551  0.91877278     0.07680
H1312       H  0.51351232  0.39845482  0.92446888     0.04450
C1313       C  0.01643371  0.37951083  0.90456283    -0.21350
C1314       C  0.03901381  0.36730622  0.88253191    -0.07920
C1315       C  0.01757867  0.34701496  0.86177842     0.12950
C1316       C  0.97472488  0.33791151  0.86384811    -0.21400
C1317       C  0.95220395  0.34894513  0.88600174    -0.07920
C1318       C  0.97305018  0.37066807  0.90656531     0.12940
C1319       C  0.95023583  0.38344201  0.93091102    -0.24750
H1320       H  0.03301309  0.39456359  0.92057238     0.14230
H1321       H  0.95857504  0.32263068  0.84776215     0.14260
C1322       C  0.03972984  0.33408873  0.83738582    -0.24700
H1323       H  0.97215529  0.39713988  0.94560060     0.04470
H1324       H  0.93445842  0.35555394  0.93944773     0.07700
H1325       H  0.92652816  0.40765430  0.92664157     0.07700
H1326       H  0.06098344  0.30811820  0.84207418     0.07680
H1327       H  0.05776014  0.36107766  0.82940482     0.07680
H1328       H  0.01751452  0.32231221  0.82226472     0.04450
C1329       C  0.22537108  0.60289091  0.89158065    -0.21350
C1330       C  0.20090694  0.58061202  0.87329358    -0.07920
C1331       C  0.17598527  0.60382531  0.85599940     0.12950
C1332       C  0.17696006  0.64851097  0.85702796    -0.21400
C1333       C  0.20249434  0.67077243  0.87494941    -0.07920
C1334       C  0.22670914  0.64728118  0.89243925     0.12940
C1335       C  0.25532679  0.66908186  0.91157662    -0.24750
H1336       H  0.24493968  0.58535317  0.90468102     0.14230
H1337       H  0.15893057  0.66607318  0.84317116     0.14260
C1338       C  0.14920512  0.58135162  0.83606183    -0.24700
H1339       H  0.27202032  0.64598523  0.92358298     0.04470
H1340       H  0.23654259  0.68977173  0.92444707     0.07700
H1341       H  0.27938077  0.68826808  0.90136382     0.07700
H1342       H  0.12607792  0.56043369  0.84580710     0.07680
H1343       H  0.16941817  0.56214399  0.82314360     0.07680
H1344       H  0.13158828  0.60375325  0.82400333     0.04450
C1345       C  0.30651739  0.14955656  0.90179230    -0.21350
C1346       C  0.31326172  0.17017217  0.87846780    -0.07920
C1347       C  0.33052694  0.14737314  0.85726759     0.12950
C1348       C  0.33522001  0.10350936  0.85911528    -0.21400
C1349       C  0.32357941  0.08243193  0.88166692    -0.07920
C1350       C  0.31263440  0.10629548  0.90376333     0.12940
C1351       C  0.30497489  0.08655082  0.92943767    -0.24750
H1352       H  0.29499050  0.16703726  0.91841957     0.14230
H1353       H  0.34425628  0.08534338  0.84220677     0.14260
C1354       C  0.34102983  0.16814164  0.83205767    -0.24700
H1355       H  0.32428123  0.10324326  0.94434334     0.04470
H1356       H  0.31386862  0.05297527  0.92978010     0.07700
H1357       H  0.27102607  0.08933520  0.93401370     0.07700
H1358       H  0.36573459  0.19270965  0.83525715     0.07680
H1359       H  0.31240496  0.18246253  0.82382129     0.07680
H1360       H  0.35328476  0.14530798  0.81757981     0.04450
C1361       C  0.77102839  0.54450808  0.99199463    -0.21350
C1362       C  0.73889399  0.53699541  0.01007242    -0.07920
C1363       C  0.71389239  0.50056112  0.00786582     0.12950
C1364       C  0.72390797  0.47044150  0.98912301    -0.21400
C1365       C  0.75866788  0.47567001  0.97238723    -0.07920
C1366       C  0.78162048  0.51411834  0.97323968     0.12940
C1367       C  0.81822113  0.52287854  0.95552808    -0.24750
H1368       H  0.79080360  0.57237913  0.99436106     0.14230
H1369       H  0.70507366  0.44183372  0.98836337     0.14260
C1370       C  0.67857267  0.49210279  0.02663932    -0.24700
H1371       H  0.83272565  0.55431154  0.95943772     0.04470
H1372       H  0.80743224  0.52226016  0.93515074     0.07700
H1373       H  0.84288795  0.49896159  0.95826993     0.07700
H1374       H  0.65548556  0.51793502  0.02580291     0.07680
H1375       H  0.69115413  0.49018735  0.04660389     0.07680
H1376       H  0.66173891  0.46206738  0.02208978     0.04450
C1377       C  0.86474780  0.68523260  0.99792572    -0.21350
C1378       C  0.87013945  0.70881378  0.02066713    -0.07920
C1379       C  0.87268610  0.75321687  0.01898328     0.12950
C1380       C  0.86738784  0.77285314  0.99485921    -0.21400
C1381       C  0.85856407  0.74936694  0.97218850    -0.07920
C1382       C  0.85834646  0.70458332  0.97396377     0.12940
C1383       C  0.84836561  0.67631942  0.95124310    -0.24750
H1384       H  0.86179869  0.65132814  0.99925827     0.14230
H1385       H  0.86853859  0.80685182  0.99396244     0.14260
C1386       C  0.88048510  0.78001956  0.04278344    -0.24700
H1387       H  0.84790424  0.64250938  0.95635044     0.04470
H1388       H  0.87217056  0.68068469  0.93580791     0.07700
H1389       H  0.81660959  0.68416425  0.94422935     0.07700
H1390       H  0.91038381  0.77059942  0.05206478     0.07680
H1391       H  0.85424466  0.77617767  0.05671354     0.07680
H1392       H  0.88309938  0.81390710  0.03806713     0.04450
C1393       C  0.69883787  0.57581380  0.24947347    -0.21350
C1394       C  0.70151938  0.53985412  0.23350469    -0.07920
C1395       C  0.67825479  0.50344035  0.24012517     0.12950
C1396       C  0.65207680  0.50431567  0.26228402    -0.21400
C1397       C  0.64839852  0.54111840  0.27753327    -0.07920
C1398       C  0.67239689  0.57708822  0.27106505     0.12940
C1399       C  0.66893058  0.61763087  0.28636725    -0.24750
H1400       H  0.71625091  0.60401004  0.24426671     0.14230
H1401       H  0.63451484  0.47636357  0.26769469     0.14260
C1402       C  0.68034743  0.46435477  0.22353562    -0.24700
H1403       H  0.68891097  0.64308013  0.27817056     0.04470
H1404       H  0.67911034  0.61298751  0.30659276     0.07700
H1405       H  0.63575982  0.62822422  0.28627037     0.07700
H1406       H  0.71334674  0.45331879  0.22264772     0.07680
H1407       H  0.66934924  0.47120598  0.20369265     0.07680
H1408       H  0.66031505  0.43862784  0.23135490     0.04450
C1409       C  0.90356799  0.65527050  0.28298130    -0.21350
C1410       C  0.91487905  0.61282670  0.28601536    -0.07920
C1411       C  0.89253780  0.58118151  0.27244789     0.12950
C1412       C  0.86331940  0.59312379  0.25372911    -0.21400
C1413       C  0.85790950  0.63582081  0.24751474    -0.07920
C1414       C  0.87550772  0.66714200  0.26359256     0.12940
C1415       C  0.86724724  0.71287825  0.25900378    -0.24750
H1416       H  0.91896994  0.67954894  0.29458080     0.14230
H1417       H  0.84863754  0.56896895  0.24162366     0.14260
C1418       C  0.90206254  0.53536159  0.27595930    -0.24700
H1419       H  0.88364296  0.73342924  0.27344272     0.04470
H1420       H  0.83290603  0.71861354  0.26045809     0.07700
H1421       H  0.87838978  0.72173962  0.23947605     0.07700
H1422       H  0.89546455  0.52634484  0.29620369     0.07680
H1423       H  0.93571030  0.52955385  0.27148980     0.07680
H1424       H  0.88252496  0.51486331  0.26303242     0.04450
C1425       C  0.73055973  0.99195986  0.97766555    -0.21350
C1426       C  0.74882093  0.95224153  0.97698593    -0.07920
C1427       C  0.77610266  0.94081425  0.99744339     0.12950
C1428       C  0.78845393  0.97095191  0.01598249    -0.21400
C1429       C  0.77088282  0.01093431  0.01652572    -0.07920
C1430       C  0.73958663  0.02055176  0.99791825     0.12940
C1431       C  0.71328832  0.05946857  0.99958357    -0.24750
H1432       H  0.70914906  0.00079695  0.96240419     0.14230
H1433       H  0.80899964  0.96177876  0.03163038     0.14260
C1434       C  0.79135309  0.89652194  0.00111447    -0.24700
H1435       H  0.71722826  0.07784392  0.98167051     0.04470
H1436       H  0.72150421  0.07967671  0.01642479     0.07700
H1437       H  0.67957335  0.05028227  0.00145822     0.07700
H1438       H  0.82592638  0.89543039  0.99805538     0.07680
H1439       H  0.77550587  0.87329838  0.98809528     0.07680
H1440       H  0.78425057  0.88643740  0.02112475     0.04450
C1441       C  0.64939046  0.22049680  0.01495002    -0.21350
C1442       C  0.68278298  0.19299914  0.01943616    -0.07920
C1443       C  0.71441229  0.18861246  0.00014619     0.12950
C1444       C  0.71134803  0.21090220  0.97709300    -0.21400
C1445       C  0.67911995  0.23951101  0.97304810    -0.07920
C1446       C  0.64764098  0.24442702  0.99215145     0.12940
C1447       C  0.61237304  0.27489712  0.98852863    -0.24750
H1448       H  0.62598128  0.22504445  0.02990905     0.14230
H1449       H  0.73566428  0.20731545  0.96254210     0.14260
C1450       C  0.75327514  0.16240011  0.00337629    -0.24700
H1451       H  0.58997649  0.27431558  0.00499489     0.04470
H1452       H  0.59468327  0.26666955  0.97061095     0.07700
H1453       H  0.62537043  0.30734409  0.98704112     0.07700
H1454       H  0.75627469  0.14032550  0.98672221     0.07680
H1455       H  0.75326401  0.14368970  0.02118975     0.07680
H1456       H  0.78154870  0.18332413  0.00375788     0.04450
C1457       C  0.73667266  0.88513473  0.15502525    -0.21350
C1458       C  0.72992454  0.90554921  0.13142377    -0.07920
C1459       C  0.73559747  0.88209253  0.10817856     0.12950
C1460       C  0.74666833  0.83939128  0.10933155    -0.21400
C1461       C  0.75240579  0.81870113  0.13294913    -0.07920
C1462       C  0.74776166  0.84242582  0.15616783     0.12940
C1463       C  0.75434783  0.82347587  0.18236852    -0.24750
H1464       H  0.73295715  0.90267148  0.17293499     0.14230
H1465       H  0.75044535  0.82189413  0.09140352     0.14260
C1466       C  0.73040279  0.90136527  0.08192869    -0.24700
H1467       H  0.75089743  0.84707895  0.19821413     0.04470
H1468       H  0.78660657  0.81064209  0.18366625     0.07700
H1469       H  0.73058728  0.79821694  0.18566894     0.07700
H1470       H  0.75298263  0.92802860  0.07970892     0.07680
H1471       H  0.69763814  0.91236839  0.07953610     0.07680
H1472       H  0.73661095  0.87845520  0.06603613     0.04450
C1473       C  0.80736106  0.32977769  0.10275058    -0.21350
C1474       C  0.79628382  0.31159855  0.12658906    -0.07920
C1475       C  0.78982434  0.33899908  0.14801497     0.12950
C1476       C  0.79533308  0.38275868  0.14515195    -0.21400
C1477       C  0.80727067  0.40101016  0.12151754    -0.07920
C1478       C  0.81303527  0.37373871  0.09993388     0.12940
C1479       C  0.82576470  0.39033399  0.07394193    -0.24750
H1480       H  0.81224626  0.30936244  0.08613062     0.14230
H1481       H  0.79030499  0.40295885  0.16183447     0.14260
C1482       C  0.77646106  0.32286197  0.17404719    -0.24700
H1483       H  0.82933529  0.36464826  0.05938232     0.04470
H1484       H  0.85646648  0.40729350  0.07555195     0.07700
H1485       H  0.80133861  0.41187135  0.06673346     0.07700
H1486       H  0.80148146  0.30294844  0.18218198     0.07680
H1487       H  0.74661730  0.30447237  0.17212030     0.07680
H1488       H  0.77092755  0.34884026  0.18814367     0.04450
C1489       C  0.67637269  0.17728409  0.26956416    -0.21350
C1490       C  0.70417560  0.15105979  0.25653333    -0.07920
C1491       C  0.71235846  0.11103503  0.26700359     0.12950
C1492       C  0.68791574  0.09551971  0.28762214    -0.21400
C1493       C  0.65529483  0.11936985  0.29794130    -0.07920
C1494       C  0.65209542  0.16231867  0.29027887     0.12940
C1495       C  0.62141187  0.19246313  0.30252177    -0.24750
H1496       H  0.67009965  0.20800788  0.26171977     0.14230
H1497       H  0.69145584  0.06332554  0.29377968     0.14260
C1498       C  0.74382919  0.08280299  0.25445003    -0.24700
H1499       H  0.62891210  0.22552781  0.29740667     0.04470
H1500       H  0.62297755  0.19042728  0.32381465     0.07700
H1501       H  0.58887285  0.18576853  0.29569098     0.07700
H1502       H  0.77516914  0.09865461  0.25388551     0.07680
H1503       H  0.73324775  0.07458162  0.23465200     0.07680
H1504       H  0.74663339  0.05334551  0.26518953     0.04450
C1505       C  0.89170347  0.04528172  0.23493203    -0.21350
C1506       C  0.84987244  0.02997543  0.23588429    -0.07920
C1507       C  0.83584708  0.01323494  0.25975456     0.12950
C1508       C  0.85955393  0.02200295  0.28258322    -0.21400
C1509       C  0.89784121  0.04500787  0.28177470    -0.07920
C1510       C  0.91558015  0.05325489  0.25729058     0.12940
C1511       C  0.95954875  0.07130842  0.25438863    -0.24750
H1512       H  0.90480715  0.05470405  0.21656334     0.14230
H1513       H  0.84711851  0.01242458  0.30111225     0.14260
C1514       C  0.79825364  0.98421553  0.26177754    -0.24700
H1515       H  0.96967651  0.07162331  0.23384892     0.04470
H1516       H  0.98222461  0.05191629  0.26518062     0.07700
H1517       H  0.96113996  0.10424669  0.26160857     0.07700
H1518       H  0.78110042  0.98015429  0.24330014     0.07680
H1519       H  0.77642607  0.99540383  0.27698923     0.07680
H1520       H  0.80921082  0.95273361  0.26758278     0.04450
C1521       C  0.35194702  0.49658640  0.01294115    -0.21350
C1522       C  0.35930116  0.54027640  0.01160733    -0.07920
C1523       C  0.36193777  0.55842907  0.98682864     0.12950
C1524       C  0.35096563  0.53375127  0.96462926    -0.21400
C1525       C  0.33774071  0.49135235  0.96673530    -0.07920
C1526       C  0.34063758  0.47220554  0.99112253     0.12940
C1527       C  0.33084944  0.42605341  0.99447223    -0.24750
H1528       H  0.35134054  0.48192944  0.03173699     0.14230
H1529       H  0.35024151  0.54831548  0.94584624     0.14260
C1530       C  0.37524083  0.60366282  0.98378372    -0.24700
H1531       H  0.33710362  0.41580338  0.01452548     0.04470
H1532       H  0.35080273  0.40714351  0.98123451     0.07700
H1533       H  0.29716139  0.41929127  0.99030496     0.07700
H1534       H  0.40758230  0.60830116  0.99157003     0.07680
H1535       H  0.35369445  0.62478976  0.99441419     0.07680
H1536       H  0.37535597  0.61292750  0.96317582     0.04450
C1537       C  0.28829809  0.70298209  0.96921771    -0.21350
C1538       C  0.28974035  0.74696824  0.97230984    -0.07920
C1539       C  0.26844871  0.76458389  0.99380912     0.12950
C1540       C  0.23858620  0.74099457  0.00696110    -0.21400
C1541       C  0.24084669  0.69726967  0.00659552    -0.07920
C1542       C  0.26528202  0.67771874  0.98696405     0.12940
C1543       C  0.26652453  0.63059033  0.98487055    -0.24750
H1544       H  0.30532528  0.68868832  0.95340752     0.14230
H1545       H  0.22124704  0.75644607  0.02241149     0.14260
C1546       C  0.27688559  0.80860234  0.00357650    -0.24700
H1547       H  0.28624424  0.62008442  0.96836550     0.04470
H1548       H  0.23412427  0.61792112  0.98186291     0.07700
H1549       H  0.27956376  0.61732210  0.00285676     0.07700
H1550       H  0.24811788  0.82742714  0.00095844     0.07680
H1551       H  0.30399871  0.82336138  0.99351957     0.07680
H1552       H  0.28497675  0.80804255  0.02445386     0.04450
C1553       C  0.51788324  0.63808006  0.14156637    -0.21350
C1554       C  0.49969465  0.65401445  0.11904029    -0.07920
C1555       C  0.52581137  0.66153972  0.09735702     0.12950
C1556       C  0.56926683  0.65435232  0.09918433    -0.21400
C1557       C  0.58773816  0.63992237  0.12203521    -0.07920
C1558       C  0.56130990  0.63070346  0.14337543     0.12940
C1559       C  0.57804485  0.61268195  0.16809831    -0.24750
H1560       H  0.49793639  0.63144844  0.15803399     0.14230
H1561       H  0.58912903  0.66119729  0.08272032     0.14260
C1562       C  0.50876143  0.67851309  0.07245549    -0.24700
H1563       H  0.55232489  0.60467237  0.18179079     0.04470
H1564       H  0.59897764  0.63594704  0.17804724     0.07700
H1565       H  0.59550927  0.58340001  0.16379872     0.07700
H1566       H  0.49288885  0.70886175  0.07622648     0.07680
H1567       H  0.48622785  0.65552182  0.06363019     0.07680
H1568       H  0.53409953  0.68426379  0.05809490     0.04450
C1569       C  0.02548321  0.57464675  0.15033982    -0.21350
C1570       C  0.00348134  0.59363515  0.13013769    -0.07920
C1571       C  0.02675914  0.61552588  0.11104009     0.12950
C1572       C  0.07098399  0.61609441  0.11206274    -0.21400
C1573       C  0.09300999  0.59594695  0.13173634    -0.07920
C1574       C  0.06983156  0.57539074  0.15138918     0.12940
C1575       C  0.09136458  0.55264619  0.17294447    -0.24750
H1576       H  0.00790322  0.55804676  0.16504985     0.14230
H1577       H  0.08859839  0.63241323  0.09723826     0.14260
C1578       C  0.00556894  0.63925746  0.08973464    -0.24700
H1579       H  0.06837204  0.53664010  0.18577997     0.04470
H1580       H  0.10980599  0.57533759  0.18504180     0.07700
H1581       H  0.11252495  0.52834275  0.16477788     0.07700
H1582       H  0.98299753  0.66201376  0.09814872     0.07680
H1583       H  0.98889282  0.61706934  0.07641438     0.07680
H1584       H  0.02863909  0.65728500  0.07798853     0.04450
C1585       C  0.16428552  0.69584531  0.23398631    -0.21350
C1586       C  0.20807983  0.70179200  0.23542645    -0.07920
C1587       C  0.22671985  0.70838005  0.26005952     0.12950
C1588       C  0.20124414  0.70645666  0.28239922    -0.21400
C1589       C  0.15766244  0.69751648  0.28100332    -0.07920
C1590       C  0.13891875  0.69324701  0.25612979     0.12940
C1591       C  0.09260434  0.68385637  0.25225981    -0.24750
H1592       H  0.15003521  0.69041037  0.21516237     0.14230
H1593       H  0.21603466  0.71050553  0.30115923     0.14260
C1594       C  0.27333787  0.71527039  0.26388251    -0.24700
H1595       H  0.08412410  0.68078940  0.23148568     0.04470
H1596       H  0.07364826  0.70981410  0.26051545     0.07700
H1597       H  0.08398379  0.65362887  0.26147794     0.07700
H1598       H  0.29135104  0.71529392  0.24563908     0.07680
H1599       H  0.28595827  0.69012647  0.27621609     0.07680
H1600       H  0.27892741  0.74605860  0.27375625     0.04450
C1601       C  0.44027491  0.60792230  0.23402021    -0.21350
C1602       C  0.39668258  0.60084273  0.23544777    -0.07920
C1603       C  0.37498521  0.61281446  0.25819095     0.12950
C1604       C  0.39778716  0.63077067  0.27909199    -0.21400
C1605       C  0.44139923  0.63830260  0.27727556    -0.07920
C1606       C  0.46251127  0.62752904  0.25413916     0.12940
C1607       C  0.50905186  0.63561819  0.25028874    -0.24750
H1608       H  0.45678706  0.60069064  0.21617418     0.14230
H1609       H  0.38193778  0.63712492  0.29723159     0.14260
C1610       C  0.32794336  0.60746329  0.26024899    -0.24700
H1611       H  0.51393238  0.65477739  0.23274211     0.04470
H1612       H  0.52547191  0.60525372  0.24767412     0.07700
H1613       H  0.52372837  0.65308328  0.26674665     0.07700
H1614       H  0.31915259  0.57382800  0.25739152     0.07680
H1615       H  0.31218111  0.62647541  0.24533194     0.07680
H1616       H  0.31618610  0.61773867  0.27949561     0.04450
C1617       C  0.30719331  0.98309833  0.02081285    -0.21350
C1618       C  0.30391884  0.02693288  0.01974370    -0.07920
C1619       C  0.28723483  0.04508864  0.99728002     0.12950
C1620       C  0.26996064  0.01905350  0.97787237    -0.21400
C1621       C  0.26957332  0.97492304  0.97965773    -0.07920
C1622       C  0.29017168  0.95689103  0.00105929     0.12940
C1623       C  0.29231497  0.91032694  0.00403078    -0.24750
H1624       H  0.31889419  0.96918933  0.03837246     0.14230
H1625       H  0.25472117  0.03368559  0.96169440     0.14260
C1626       C  0.28488471  0.09240766  0.99469636    -0.24700
H1627       H  0.30978615  0.90150032  0.02170412     0.04470
H1628       H  0.30866014  0.89644214  0.98706689     0.07700
H1629       H  0.25980687  0.89757341  0.00559633     0.07700
H1630       H  0.31717252  0.10620232  0.99478360     0.07680
H1631       H  0.26658149  0.10709400  0.01050474     0.07680
H1632       H  0.26871465  0.10156954  0.97677276     0.04450
C1633       C  0.17632659  0.28495616  0.99896846    -0.21350
C1634       C  0.21119477  0.27923375  0.98287278    -0.07920
C1635       C  0.23758702  0.24428847  0.98674612     0.12950
C1636       C  0.22854350  0.21608880  0.00672391    -0.21400
C1637       C  0.19363596  0.22178553  0.02283565    -0.07920
C1638       C  0.16703406  0.25659010  0.01881066     0.12940
C1639       C  0.12772388  0.26305340  0.03464874    -0.24750
H1640       H  0.15521778  0.31070135  0.99526032     0.14230
H1641       H  0.24940617  0.19006381  0.01017806     0.14260
C1642       C  0.27585114  0.23704565  0.97010370    -0.24700
H1643       H  0.10890287  0.28961480  0.02741687     0.04470
H1644       H  0.13597089  0.27042278  0.05503662     0.07700
H1645       H  0.10759652  0.23423718  0.03370599     0.07700
H1646       H  0.29686021  0.26522563  0.97098407     0.07680
H1647       H  0.26636644  0.23074108  0.94978311     0.07680
H1648       H  0.29410963  0.20961883  0.97664846     0.04450
C1649       C  0.25836069  0.90075547  0.14774217    -0.21350
C1650       C  0.24084174  0.91863314  0.12570360    -0.07920
C1651       C  0.23782024  0.89395679  0.10279067     0.12950
C1652       C  0.25361329  0.85253465  0.10245542    -0.21400
C1653       C  0.27297069  0.83530076  0.12435984    -0.07920
C1654       C  0.27480178  0.86009533  0.14747527     0.12940
C1655       C  0.29578691  0.84551197  0.17191141    -0.24750
H1656       H  0.26122269  0.91989344  0.16517601     0.14230
H1657       H  0.25175169  0.83395676  0.08479308     0.14260
C1658       C  0.22015783  0.91181021  0.07835318    -0.24700
H1659       H  0.29617284  0.87021474  0.18729733     0.04470
H1660       H  0.32907076  0.83737785  0.16789604     0.07700
H1661       H  0.27841532  0.81805654  0.17979590     0.07700
H1662       H  0.23916052  0.93964162  0.07248916     0.07680
H1663       H  0.18702249  0.92122498  0.08159320     0.07680
H1664       H  0.22057040  0.88852778  0.06216184     0.04450
C1665       C  0.24087458  0.36326849  0.12340659    -0.21350
C1666       C  0.27706519  0.33853200  0.12177094    -0.07920
C1667       C  0.31731678  0.35827690  0.12118989     0.12950
C1668       C  0.32017430  0.40232502  0.12276285    -0.21400
C1669       C  0.28390197  0.42650305  0.12510053    -0.07920
C1670       C  0.24383924  0.40701716  0.12518186     0.12940
C1671       C  0.20417158  0.43240910  0.12725950    -0.24750
H1672       H  0.21002503  0.34833389  0.12396082     0.14230
H1673       H  0.35068073  0.41797297  0.12211213     0.14260
C1674       C  0.35713860  0.33344726  0.11824881    -0.24700
H1675       H  0.17547982  0.41204166  0.12728399     0.04470
H1676       H  0.20192975  0.45390291  0.11061908     0.07700
H1677       H  0.20460584  0.45121858  0.14549317     0.07700
H1678       H  0.35506570  0.31308130  0.10067874     0.07680
H1679       H  0.36210195  0.31382887  0.13549649     0.07680
H1680       H  0.38525349  0.35431938  0.11628918     0.04450
C1681       C  0.51530319  0.10253896  0.15242957    -0.21350
C1682       C  0.54514322  0.13011732  0.14212082    -0.07920
C1683       C  0.53170719  0.16724120  0.13002192     0.12950
C1684       C  0.48831658  0.17527534  0.12796506    -0.21400
C1685       C  0.45829019  0.14613933  0.13676413    -0.07920
C1686       C  0.47215710  0.10940930  0.14950540     0.12940
C1687       C  0.44292322  0.07578752  0.15981193    -0.24750
H1688       H  0.52571757  0.07389602  0.16145282     0.14230
H1689       H  0.47781543  0.20311890  0.11813141     0.14260
C1690       C  0.56308655  0.19807540  0.11902020    -0.24700
H1691       H  0.44932678  0.07131225  0.18068595     0.04470
H1692       H  0.44847408  0.04565329  0.14935926     0.07700
H1693       H  0.40928968  0.08333931  0.15798270     0.07700
H1694       H  0.58124056  0.18294400  0.10320766     0.07680
H1695       H  0.58509006  0.20908211  0.13444141     0.07680
H1696       H  0.54735818  0.22597729  0.11096345     0.04450
C1697       C  0.97375923  0.12222237  0.10576077    -0.21350
C1698       C  0.95056942  0.09765693  0.12304265    -0.07920
C1699       C  0.97172358  0.07119412  0.14039297     0.12950
C1700       C  0.01592101  0.07180580  0.14096873    -0.21400
C1701       C  0.03882769  0.09874520  0.12494000    -0.07920
C1702       C  0.01773511  0.12352712  0.10671334     0.12940
C1703       C  0.04149750  0.15190894  0.08851788    -0.24750
H1704       H  0.95736967  0.14234278  0.09245274     0.14230
H1705       H  0.03258230  0.05245416  0.15458038     0.14260
C1706       C  0.94789865  0.04222594  0.15813285    -0.24700
H1707       H  0.02000274  0.16794439  0.07501243     0.04470
H1708       H  0.06398224  0.13317074  0.07685121     0.07700
H1709       H  0.05904248  0.17659517  0.09960626     0.07700
H1710       H  0.92676683  0.02111260  0.14660316     0.07680
H1711       H  0.92894833  0.06073382  0.17205461     0.07680
H1712       H  0.96948445  0.02235654  0.16944278     0.04450
C1713       C  0.14242998  0.21940985  0.24353124    -0.21350
C1714       C  0.15210030  0.18303242  0.22944656    -0.07920
C1715       C  0.12985309  0.14512324  0.23402837     0.12950
C1716       C  0.09929436  0.14404722  0.25352805    -0.21400
C1717       C  0.09034990  0.18020896  0.26806952    -0.07920
C1718       C  0.11188157  0.21837884  0.26299444     0.12940
C1719       C  0.10270057  0.25796265  0.27822725    -0.24750
H1720       H  0.15842418  0.24874067  0.23904316     0.14230
H1721       H  0.08361997  0.11462294  0.25815537     0.14260
C1722       C  0.13872962  0.10579447  0.21850182    -0.24700
H1723       H  0.12144249  0.28522213  0.27118598     0.04470
H1724       H  0.11048644  0.25370822  0.29891807     0.07700
H1725       H  0.06880905  0.26552102  0.27640913     0.07700
H1726       H  0.17237988  0.09745960  0.22064698     0.07680
H1727       H  0.13176901  0.11097040  0.19777533     0.07680
H1728       H  0.11915092  0.07873898  0.22498691     0.04450
C1729       C  0.42968899  0.14074786  0.24745129    -0.21350
C1730       C  0.42588241  0.11762721  0.26998602    -0.07920
C1731       C  0.40084534  0.08042057  0.26988316     0.12950
C1732       C  0.37684813  0.06948854  0.24778055    -0.21400
C1733       C  0.37728934  0.09522300  0.22602451    -0.07920
C1734       C  0.40500402  0.13079003  0.22572818     0.12940
C1735       C  0.40667077  0.16057120  0.20335977    -0.24750
H1736       H  0.44917706  0.16899693  0.24765561     0.14230
H1737       H  0.35559778  0.04255963  0.24818231     0.14260
C1738       C  0.39943105  0.05240418  0.29309108    -0.24700
H1739       H  0.43265489  0.18411215  0.20544375     0.04470
H1740       H  0.37690427  0.17813238  0.20185062     0.07700
H1741       H  0.41194868  0.14274343  0.18532895     0.07700
H1742       H  0.38713713  0.06975011  0.31010936     0.07680
H1743       H  0.43165824  0.04146829  0.29750007     0.07680
H1744       H  0.37886853  0.02433783  0.28969445     0.04450
loop_ 
_geom_bond_atom_site_label_1 
_geom_bond_atom_site_label_2 
_geom_bond_distance 
_geom_bond_site_symmetry_2 
_ccdc_geom_bond_type 
N1            N2   1.311       .  A
N1            N7   1.313       .  A
N1          Mn30   2.132       .  S
N2            C9   1.339       .  A
N3            N5   1.313       .  A
N3            N4   1.318       .  A
N3          Mn19   2.182       .  S
N4           C10   1.351       .  A
N5            N6   1.317       .  A
N5          Mn30   2.189       .  S
N6           C10   1.353       .  A
N7            N8   1.325       .  A
N7          Mn19   2.230       .  S
N8            C9   1.359       .  A
C9         C1714   1.458       .  S
C10        C1666   1.474       .  S
N11          N17   1.320       .  A
N11          N12   1.315       .  A
N11         Mn41   2.166       .  S
N12          C20   1.343       .  A
N13          N14   1.311       .  A
N13          N15   1.317       .  A
N13         Mn19   2.146       .  S
N14          C21   1.338       .  A
N15          N16   1.332       .  A
N15         Mn41   2.266       .  S
N16          C21   1.364       .  A
N17          N18   1.328       .  A
N17         Mn19   2.254       .  S
N18          C20   1.359       .  A
Mn19        Cl43   2.524       .  S
C20        C1685   1.481       .  S
C21        C1733   1.482       .  S
N22          N23   1.312       .  A
N22          N28   1.312       .  A
N22         Mn30   2.138       .  S
N23          C31   1.341       .  A
N24          N26   1.314       .  A
N24          N25   1.321       .  A
N24         Mn42   2.190       .  S
N25          C32   1.351       .  A
N26          N27   1.316       .  A
N26         Mn30   2.187       .  S
N27          C32   1.349       .  A
N28          N29   1.329       .  A
N28         Mn42   2.255       .  S
N29          C31   1.364       .  A
Mn30        Cl43   2.544       .  S
C31        C1637   1.480       .  S
C32        C1701   1.463       .  S
N33          N34   1.313   1_545  A
N33          N39   1.322       .  A
N33         Mn41   2.178       .  S
N34          C44   1.343       .  A
N35          N36   1.302       .  A
N35          N37   1.314       .  A
N35         Mn42   2.119       .  S
N36          C45   1.335       .  A
N37          N38   1.332       .  A
N37         Mn41   2.249       .  S
N38          C45   1.364       .  A
N39          N40   1.331   1_545  A
N39         Mn42   2.261       .  S
N40          C44   1.363       .  A
Mn41        Cl43   2.537       .  S
Mn42        Cl43   2.528       .  S
C44        C1650   1.489       .  S
C45        C1618   1.469       .  S
N46          N47   1.316       .  A
N46          N52   1.316       .  A
N46         Mn75   2.189       .  S
N47          C54   1.346       .  A
N48          N50   1.318       .  A
N48          N49   1.322       .  A
N48         Mn64   2.222       .  S
N49          C55   1.354       .  A
N50          N51   1.321       .  A
N50         Mn75   2.209       .  S
N51          C55   1.355       .  A
N52          N53   1.321       .  A
N52         Mn64   2.192       .  S
N53          C54   1.353       .  A
C54        C1669   1.459       .  S
C55        C1573   1.490       .  S
N56          N62   1.315       .  A
N56          N57   1.332       .  A
N56         Mn86   2.256       .  S
N57          C65   1.365       .  A
N58          N59   1.331       .  A
N58          N60   1.315       .  A
N58         Mn64   2.243       .  S
N59          C66   1.365       .  A
N60          N61   1.303       .  A
N60         Mn86   2.129       .  S
N61          C66   1.333       .  A
N62          N63   1.312       .  A
N62         Mn64   2.158       .  S
N63          C65   1.343       .  A
Mn64        Cl88   2.553       .  S
C65        C1586   1.488       .  S
C66        C1602   1.468       .  S
N67          N68   1.334       .  A
N67          N73   1.316       .  A
N67         Mn75   2.229       .  S
N68          C76   1.361       .  A
N69          N71   1.316       .  A
N69          N70   1.338       .  A
N69         Mn87   2.289       .  S
N70          C77   1.372       .  A
N71          N72   1.310       .  A
N71         Mn75   2.152       .  S
N72          C77   1.341       .  A
N73          N74   1.299       .  A
N73         Mn87   2.125       .  S
N74          C76   1.334       .  A
Mn75        Cl88   2.532       .  S
C76        C1541   1.470       .  S
C77        C1522   1.502       .  S
N78          N79   1.321       .  A
N78          N84   1.313       .  A
N78         Mn86   2.215       .  S
N79          C89   1.355       .  A
N80          N81   1.330       .  A
N80          N82   1.313       .  A
N80         Mn87   2.252       .  S
N81          C90   1.364       .  A
N82          N83   1.314       .  A
N82         Mn86   2.163       .  S
N83          C90   1.348       .  A
N84          N85   1.321       .  A
N84         Mn87   2.184       .  S
N85          C89   1.353       .  A
Mn86        Cl88   2.522       .  S
Mn87        Cl88   2.538       .  S
C89        C1554   1.490       .  S
C90        C1653   1.502       .  S
N91          N92   1.317       .  A
N91          N97   1.316       .  A
N91        Mn120   2.199       .  S
N92          C99   1.348       .  A
N93          N95   1.319       .  A
N93          N94   1.324       .  A
N93        Mn109   2.227       .  S
N94         C100   1.355       .  A
N95          N96   1.326       .  A
N95        Mn120   2.237       .  S
N96         C100   1.361       .  A
N97          N98   1.320       .  A
N97        Mn109   2.188       .  S
N98          C99   1.354       .  A
C99        C1698   1.469       .  S
C100       C1474   1.510       .  S
N101        N107   1.317       .  A
N101        N102   1.332       .  A
N101       Mn131   2.269       .  S
N102        C110   1.365       .  A
N103        N104   1.332       .  A
N103        N105   1.315       .  A
N103       Mn109   2.266       .  S
N104        C111   1.366       .  A
N105        N106   1.307       .  A
N105       Mn131   2.114       .  S
N106        C111   1.332       .  A
N107        N108   1.313       .  A
N107       Mn109   2.158       .  S
N108        C110   1.341       .  A
Mn109      Cl133   2.550       .  S
C110       C1442   1.487       .  S
C111       C1429   1.467       .  S
N112        N113   1.332       .  A
N112        N118   1.319       .  A
N112       Mn120   2.249       .  S
N113        C121   1.362       .  A
N114        N116   1.314       .  A
N114        N115   1.339       .  A
N114       Mn132   2.284       .  S
N115        C122   1.372       .  A
N116        N117   1.310       .  A
N116       Mn120   2.165       .  S
N117        C122   1.345       .  A
N118        N119   1.311       .  A
N118       Mn132   2.165       .  S
N119        C121   1.338       .  A
Mn120      Cl133   2.536       .  S
C121       C1490   1.481       .  S
C122       C1506   1.512       .  S
N123        N124   1.325   1_545  A
N123        N129   1.314       .  A
N123       Mn131   2.237       .  S
N124        C134   1.358       .  A
N125        N126   1.325       .  A
N125        N127   1.316       .  A
N125       Mn132   2.241       .  S
N126        C135   1.358       .  A
N127        N128   1.317       .  A
N127       Mn131   2.163       .  S
N128        C135   1.346       .  A
N129        N130   1.322   1_545  A
N129       Mn132   2.189       .  S
N130        C134   1.354       .  A
Mn131      Cl133   2.535       .  S
Mn132      Cl133   2.547       .  S
C134       C1458   1.505       .  S
C135       C1682   1.474       .  S
N136        N137   1.315       .  A
N136        N142   1.318       .  A
N136       Mn165   2.169       .  S
N137        C144   1.343       .  A
N138        N140   1.317       .  A
N138        N139   1.306       .  A
N138       Mn154   2.136       .  S
N139        C145   1.337       .  A
N140        N141   1.326       .  A
N140       Mn165   2.224       .  S
N141        C145   1.357       .  A
N142        N143   1.332       .  A
N142       Mn154   2.276       .  S
N143        C144   1.367       .  A
C144       C1378   1.490       .  S
C145       C1362   1.452       .  S
N146        N152   1.315       .  A
N146        N147   1.318       .  A
N146       Mn176   2.181       .  S
N147        C155   1.351       .  A
N148        N149   1.318       .  A
N148        N150   1.313       .  A
N148       Mn154   2.182       .  S
N149        C156   1.351       .  A
N150        N151   1.325       .  A
N150       Mn176   2.231       .  S
N151        C156   1.359       .  A
N152        N153   1.331       .  A
N152       Mn154   2.270       .  S
N153        C155   1.366       .  A
Mn154      Cl178   2.548       .  S
C155       C1477   1.512       .  S
C156       C1570   1.493   1_655  S
N157        N158   1.321       .  A
N157        N163   1.313       .  A
N157       Mn165   2.196       .  S
N158        C166   1.356       .  A
N159        N161   1.316       .  A
N159        N160   1.324       .  A
N159       Mn177   2.218       .  S
N160        C167   1.358       .  A
N161        N162   1.321       .  A
N161       Mn165   2.212       .  S
N162        C167   1.354       .  A
N163        N164   1.319       .  A
N163       Mn177   2.203       .  S
N164        C166   1.352       .  A
Mn165      Cl178   2.538       .  S
C166       C1557   1.491       .  S
C167       C1461   1.504       .  S
N168        N169   1.305       .  A
N168        N174   1.319       .  A
N168       Mn176   2.142       .  S
N169        C179   1.334       .  A
N170        N171   1.310       .  A
N170        N172   1.316       .  A
N170       Mn177   2.153       .  S
N171        C180   1.341       .  A
N172        N173   1.333       .  A
N172       Mn176   2.266       .  S
N173        C180   1.366       .  A
N174        N175   1.331       .  A
N174       Mn177   2.239       .  S
N175        C179   1.360       .  A
Mn176      Cl178   2.529       .  S
Mn177      Cl178   2.546       .  S
C179       C1413   1.469       .  S
C180       C1394   1.484       .  S
N181        N182   1.311       .  A
N181        N187   1.319       .  A
N181       Mn210   2.157       .  S
N182        C189   1.339       .  A
N183        N185   1.319       .  A
N183        N184   1.327       .  A
N183       Mn199   2.229       .  S
N184        C190   1.359       .  A
N185        N186   1.309       .  A
N185       Mn210   2.168       .  S
N186        C190   1.341       .  A
N187        N188   1.330       .  A
N187       Mn199   2.266       .  S
N188        C189   1.364       .  A
C189       C1634   1.476       .  S
C190       C1314   1.473       .  S
N191        N197   1.325       .  A
N191        N192   1.324       .  A
N191       Mn221   2.228       .  S
N192        C200   1.353       .  A
N193        N194   1.322       .  A
N193        N195   1.320       .  A
N193       Mn199   2.220       .  S
N194        C201   1.354       .  A
N195        N196   1.330       .  A
N195       Mn221   2.249       .  S
N196        C201   1.359       .  A
N197        N198   1.330       .  A
N197       Mn199   2.276       .  S
N198        C200   1.361       .  A
Mn199      Cl223   2.538       .  S
C200       C1330   1.503       .  S
C201       C1525   1.500       .  S
N202        N203   1.327       .  A
N202        N208   1.305       .  A
N202       Mn210   2.212       .  S
N203        C211   1.363       .  A
N204        N206   1.307       .  A
N204        N205   1.319       .  A
N204       Mn222   2.160       .  S
N205        C212   1.350       .  A
N206        N207   1.322       .  A
N206       Mn210   2.210       .  S
N207        C212   1.358       .  A
N208        N209   1.311       .  A
N208       Mn222   2.146       .  S
N209        C211   1.347       .  A
Mn210      Cl223   2.552       .  S
C211       C1266   1.490       .  S
C212       C1346   1.482       .  S
N213        N214   1.315       .  A
N213        N219   1.314       .  A
N213       Mn221   2.173       .  S
N214        C224   1.352       .  A
N215        N216   1.307       .  A
N215        N217   1.316       .  A
N215       Mn222   2.140       .  S
N216        C225   1.332       .  A
N217        N218   1.333       .  A
N217       Mn221   2.271       .  S
N218        C225   1.370       .  A
N219        N220   1.311       .  A
N219       Mn222   2.153       .  S
N220        C224   1.341       .  A
Mn221      Cl223   2.567       .  S
Mn222      Cl223   2.514       .  S
C224       C1301   1.448       .  S
C225       C1285   1.483       .  S
N226        N227   1.340       .  A
N226        N232   1.312       .  A
N226       Mn255   2.271       .  S
N227        C234   1.372       .  A
N228        N230   1.322       .  A
N228        N229   1.333       .  A
N228       Mn244   2.293       .  S
N229        C235   1.365       .  A
N230        N231   1.322       .  A
N230       Mn255   2.195       .  S
N231        C235   1.350       .  A
N232        N233   1.296       .  A
N232       Mn244   2.113       .  S
N233        C234   1.331       .  A
C234       C1538   1.491       .  S
C235       C1333   1.505       .  S
N236        N242   1.311       .  A
N236        N237   1.315       .  A
N236       Mn266   2.169       .  S
N237        C245   1.351       .  A
N238        N239   1.332       .  A
N238        N240   1.313       .  A
N238       Mn244   2.258       .  S
N239        C246   1.364       .  A
N240        N241   1.314       .  A
N240       Mn266   2.153       .  S
N241        C246   1.345       .  A
N242        N243   1.315       .  A
N242       Mn244   2.168       .  S
N243        C245   1.349       .  A
Mn244      Cl268   2.474       .  S
C245       C1253   1.471       .  S
C246       C1621   1.504       .  S
N247        N248   1.333       .  A
N247        N253   1.311       .  A
N247       Mn255   2.264       .  S
N248        C256   1.370       .  A
N249        N251   1.320       .  A
N249        N250   1.333       .  A
N249       Mn267   2.294       .  S
N250        C257   1.367       .  A
N251        N252   1.312       .  A
N251       Mn255   2.153       .  S
N252        C257   1.341       .  A
N253        N254   1.301       .  A
N253       Mn267   2.143       .  S
N254        C256   1.324       .  A
Mn255      Cl268   2.595       .  S
C256       C1218   1.477       .  S
C257       C1234   1.497       .  S
N258        N259   1.314   1_565  A
N258        N264   1.314       .  A
N258       Mn266   2.196       .  S
N259        C269   1.349       .  A
N260        N261   1.321       .  A
N260        N262   1.310       .  A
N260       Mn267   2.217       .  S
N261        C270   1.356       .  A
N262        N263   1.322       .  A
N262       Mn266   2.176       .  S
N263        C270   1.354       .  A
N264        N265   1.326   1_565  A
N264       Mn267   2.202       .  S
N265        C269   1.358       .  A
Mn266      Cl268   2.564       .  S
Mn267      Cl268   2.478       .  S
C269       C1349   1.480       .  S
C270       C1205   1.496       .  S
N271        N272   1.321       .  A
N271        N277   1.317       .  A
N271       Mn300   2.201       .  S
N272        C279   1.354       .  A
N273        N275   1.309       .  A
N273        N274   1.307       .  A
N273       Mn289   2.122       .  S
N274        C280   1.339       .  A
N275        N276   1.318       .  A
N275       Mn300   2.181       .  S
N276        C280   1.353       .  A
N277        N278   1.324       .  A
N277       Mn289   2.232       .  S
N278        C279   1.356       .  A
C279       C1445   1.484       .  S
C280       C1298   1.452       .  S
N281        N287   1.316       .  A
N281        N282   1.312       .  A
N281       Mn311   2.168       .  S
N282        C290   1.348       .  A
N283        N284   1.308       .  A
N283        N285   1.314       .  A
N283       Mn289   2.131       .  S
N284        C291   1.339       .  A
N285        N286   1.326       .  A
N285       Mn311   2.223       .  S
N286        C291   1.358       .  A
N287        N288   1.328       .  A
N287       Mn289   2.242       .  S
N288        C290   1.359       .  A
Mn289      Cl313   2.512       .  S
C290       C1170   1.476       .  S
C291       C1365   1.484       .  S
N292        N293   1.321       .  A
N292        N298   1.319       .  A
N292       Mn300   2.197       .  S
N293        C301   1.350       .  A
N294        N296   1.312       .  A
N294        N295   1.328       .  A
N294       Mn312   2.225       .  S
N295        C302   1.361       .  A
N296        N297   1.318       .  A
N296       Mn300   2.190       .  S
N297        C302   1.351       .  A
N298        N299   1.326       .  A
N298       Mn312   2.235       .  S
N299        C301   1.358       .  A
Mn300      Cl313   2.545       .  S
C301       C1138   1.501       .  S
C302       C1189   1.501       .  S
N303        N304   1.312       .  A
N303        N309   1.320       .  A
N303       Mn311   2.166       .  S
N304        C314   1.342       .  A
N305        N306   1.317       .  A
N305        N307   1.314       .  A
N305       Mn312   2.177       .  S
N306        C315   1.346       .  A
N307        N308   1.326       .  A
N307       Mn311   2.215       .  S
N308        C315   1.356       .  A
N309        N310   1.322       .  A
N309       Mn312   2.240       .  S
N310        C314   1.361       .  A
Mn311      Cl313   2.534       .  S
Mn312      Cl313   2.534       .  S
C314       C1317   1.471       .  S
C315       C1154   1.473       .  S
N316        N317   1.332       .  A
N316        N322   1.316       .  A
N316       Mn345   2.271       .  S
N317        C324   1.368       .  A
N318        N320   1.319       .  A
N318        N319   1.330       .  A
N318       Mn334   2.251       .  S
N319        C325   1.360   1_565  A
N320        N321   1.317       .  A
N320       Mn345   2.189       .  S
N321        C325   1.347   1_565  A
N322        N323   1.304       .  A
N322       Mn334   2.122       .  S
N323        C324   1.335       .  A
C324       C1426   1.478       .  S
C325       C1186   1.487       .  S
N326        N332   1.311       .  A
N326        N327   1.317       .  A
N326       Mn356   2.184       .  S
N327        C335   1.352       .  A
N328        N329   1.331       .  A
N328        N330   1.312       .  A
N328       Mn334   2.257       .  S
N329        C336   1.366       .  A
N330        N331   1.317       .  A
N330       Mn356   2.182       .  S
N331        C336   1.351       .  A
N332        N333   1.313       .  A
N332       Mn334   2.160       .  S
N333        C335   1.349       .  A
Mn334      Cl358   2.534       .  S
C335       C1250   1.458       .  S
C336       C1381   1.514       .  S
N337        N338   1.332       .  A
N337        N343   1.317       .  A
N337       Mn345   2.264       .  S
N338        C346   1.365       .  A
N339        N341   1.323       .  A
N339        N340   1.329       .  A
N339       Mn357   2.261       .  S
N340        C347   1.362       .  A
N341        N342   1.317       .  A
N341       Mn345   2.180       .  S
N342        C347   1.343       .  A
N343        N344   1.308       .  A
N343       Mn357   2.146       .  S
N344        C346   1.337       .  A
Mn345      Cl358   2.549       .  S
C346       C1106   1.473       .  S
C347       C1237   1.499       .  S
N348        N349   1.314       .  A
N348        N354   1.314       .  A
N348       Mn356   2.190       .  S
N349        C359   1.350       .  A
N350        N351   1.331       .  A
N350        N352   1.312       .  A
N350       Mn357   2.245       .  S
N351        C360   1.364       .  A
N352        N353   1.314       .  A
N352       Mn356   2.162       .  S
N353        C360   1.347       .  A
N354        N355   1.327       .  A
N354       Mn357   2.219       .  S
N355        C359   1.360       .  A
Mn356      Cl358   2.551       .  S
Mn357      Cl358   2.532       .  S
C359       C1173   1.497       .  S
C360       C1122   1.501       .  S
N361        N362   1.315       .  A
N361        N367   1.314       .  A
N361       Mn390   2.173       .  S
N362        C369   1.349       .  A
N363        N365   1.317       .  A
N363        N364   1.319       .  A
N363       Mn379   2.190       .  S
N364        C370   1.349       .  A
N365        N366   1.318       .  A
N365       Mn390   2.203   1_455  S
N366        C370   1.352       .  A
N367        N368   1.327       .  A
N367       Mn379   2.235   1_655  S
N368        C369   1.362       .  A
C369       C1157   1.496       .  S
C370       C1042   1.459       .  S
N371        N377   1.317       .  A
N371        N372   1.315       .  A
N371       Mn401   2.191       .  S
N372        C380   1.348       .  A
N373        N374   1.317       .  A
N373        N375   1.315       .  A
N373       Mn379   2.186       .  S
N374        C381   1.350       .  A
N375        N376   1.320       .  A
N375       Mn401   2.203       .  S
N376        C381   1.352       .  A
N377        N378   1.329       .  A
N377       Mn379   2.239       .  S
N378        C380   1.360       .  A
Mn379      Cl403   2.558       .  S
C380       C1090   1.493       .  S
C381       C1269   1.464       .  S
N382        N383   1.318       .  A
N382        N388   1.313       .  A
N382       Mn390   2.185       .  S
N383        C391   1.353       .  A
N384        N386   1.313       .  A
N384        N385   1.317       .  A
N384       Mn402   2.173       .  S
N385        C392   1.350       .  A
N386        N387   1.319       .  A
N386       Mn390   2.209       .  S
N387        C392   1.356       .  A
N388        N389   1.322       .  A
N388       Mn402   2.209       .  S
N389        C391   1.356       .  A
Mn390      Cl403   2.533   1_655  S
C391       C1010   1.489       .  S
C392       C1077   1.480       .  S
N393        N394   1.313       .  A
N393        N399   1.314   1_455  A
N393       Mn401   2.176       .  S
N394        C404   1.347   1_455  A
N395        N396   1.313       .  A
N395        N397   1.315       .  A
N395       Mn402   2.170   1_455  S
N396        C405   1.346       .  A
N397        N398   1.323       .  A
N397       Mn401   2.212       .  S
N398        C405   1.357       .  A
N399        N400   1.324       .  A
N399       Mn402   2.207       .  S
N400        C404   1.355       .  A
Mn401      Cl403   2.522       .  S
Mn402      Cl403   2.549   1_655  S
C404       C1058   1.470       .  S
C405       C1026   1.476       .  S
N406        N407   1.326       .  A
N406        N412   1.318       .  A
N406       Mn435   2.230       .  S
N407        C414   1.354       .  A
N408        N410   1.322       .  A
N408        N409   1.317       .  A
N408       Mn424   2.207       .  S
N409        C415   1.348       .  A
N410        N411   1.318       .  A
N410       Mn435   2.205       .  S
N411        C415   1.352       .  A
N412        N413   1.321       .  A
N412       Mn424   2.195       .  S
N413        C414   1.350       .  A
C414       C1125   1.486       .  S
C415        C978   1.456       .  S
N416        N422   1.309   1_455  A
N416        N417   1.313   1_565  A
N416       Mn446   2.172       .  S
N417        C425   1.351   1_455  A
N418        N419   1.327       .  A
N418        N420   1.317       .  A
N418       Mn424   2.244   1_455  S
N419        C426   1.363       .  A
N420        N421   1.314       .  A
N420       Mn446   2.189       .  S
N421        C426   1.348       .  A
N422        N423   1.324   1_565  A
N422       Mn424   2.195       .  S
N423        C425   1.356       .  A
Mn424      Cl448   2.536   1_655  S
C425       C1061   1.487       .  S
C426       C1202   1.499       .  S
N427        N428   1.335       .  A
N427        N433   1.313   1_655  A
N427       Mn435   2.256       .  S
N428        C436   1.366       .  A
N429        N431   1.318       .  A
N429        N430   1.323       .  A
N429       Mn447   2.230       .  S
N430        C437   1.358       .  A
N431        N432   1.311       .  A
N431       Mn435   2.166   1_455  S
N432        C437   1.346       .  A
N433        N434   1.309       .  A
N433       Mn447   2.138       .  S
N434        C436   1.334   1_455  A
Mn435      Cl448   2.559   1_655  S
C436        C962   1.484       .  S
C437       C1045   1.470       .  S
N438        N439   1.324       .  A
N438        N444   1.310       .  A
N438       Mn446   2.211       .  S
N439        C449   1.357       .  A
N440        N441   1.323       .  A
N440        N442   1.316       .  A
N440       Mn447   2.203       .  S
N441        C450   1.350       .  A
N442        N443   1.324       .  A
N442       Mn446   2.206       .  S
N443        C450   1.353       .  A
N444        N445   1.317       .  A
N444       Mn447   2.163       .  S
N445        C449   1.347       .  A
Mn446      Cl448   2.542       .  S
Mn447      Cl448   2.512       .  S
C449        C997   1.475       .  S
C450        C949   1.488       .  S
N451        N452   1.336       .  A
N451        N457   1.313       .  A
N451       Mn480   2.280       .  S
N452        C459   1.370       .  A
N453        N455   1.319       .  A
N453        N454   1.331       .  A
N453       Mn469   2.265       .  S
N454        C460   1.362       .  A
N455        N456   1.313       .  A
N455       Mn480   2.174       .  S
N456        C460   1.348       .  A
N457        N458   1.306       .  A
N457       Mn469   2.118       .  S
N458        C459   1.331       .  A
C459       C1282   1.492       .  S
C460       C1093   1.492       .  S
N461        N467   1.307       .  A
N461        N462   1.309       .  A
N461       Mn491   2.150       .  S
N462        C470   1.345       .  A
N463        N464   1.328       .  A
N463        N465   1.311       .  A
N463       Mn469   2.230       .  S
N464        C471   1.360       .  A
N465        N466   1.320       .  A
N465       Mn491   2.176       .  S
N466        C471   1.351       .  A
N467        N468   1.318       .  A
N467       Mn469   2.160       .  S
N468        C470   1.352       .  A
Mn469      Cl493   2.522       .  S
C470        C917   1.454       .  S
C471       C1141   1.506       .  S
N472        N473   1.329       .  A
N472        N478   1.321       .  A
N472       Mn480   2.256       .  S
N473        C481   1.359       .  A
N474        N476   1.323       .  A
N474        N475   1.321       .  A
N474       Mn492   2.218       .  S
N475        C482   1.353       .  A
N476        N477   1.315       .  A
N476       Mn480   2.208       .  S
N477        C482   1.351       .  A
N478        N479   1.320       .  A
N478       Mn492   2.194       .  S
N479        C481   1.348       .  A
Mn480      Cl493   2.537       .  S
C481        C898   1.490       .  S
C482        C930   1.480       .  S
N483        N484   1.309       .  A
N483        N489   1.309       .  A
N483       Mn491   2.140       .  S
N484        C494   1.344       .  A
N485        N486   1.330       .  A
N485        N487   1.314       .  A
N485       Mn492   2.252       .  S
N486        C495   1.366       .  A
N487        N488   1.312       .  A
N487       Mn491   2.159       .  S
N488        C495   1.343       .  A
N489        N490   1.327       .  A
N489       Mn492   2.221       .  S
N490        C494   1.361       .  A
Mn491      Cl493   2.534       .  S
Mn492      Cl493   2.537       .  S
C494       C1074   1.479       .  S
C495        C885   1.490       .  S
N496        N497   1.325       .  A
N496        N502   1.314       .  A
N496       Mn525   2.199       .  S
N497        C504   1.356       .  A
N498        N500   1.308       .  A
N498        N499   1.319       .  A
N498       Mn514   2.153       .  S
N499        C505   1.352       .  A
N500        N501   1.308       .  A
N500       Mn525   2.164       .  S
N501        C505   1.347       .  A
N502        N503   1.322       .  A
N502       Mn514   2.208       .  S
N503        C504   1.350       .  A
C504       C1109   1.497       .  S
C505        C914   1.455       .  S
N506        N512   1.319       .  A
N506        N507   1.315       .  A
N506       Mn536   2.166       .  S
N507        C515   1.345       .  A
N508        N509   1.302       .  A
N508        N510   1.311       .  A
N508       Mn514   2.113       .  S
N509        C516   1.324       .  A
N510        N511   1.332       .  A
N510       Mn536   2.260       .  S
N511        C516   1.368       .  A
N512        N513   1.329       .  A
N512       Mn514   2.265       .  S
N513        C515   1.361       .  A
Mn514      Cl538   2.484       .  S
C515        C994   1.481       .  S
C516       C1221   1.470       .  S
N517        N518   1.322       .  A
N517        N523   1.314       .  A
N517       Mn525   2.193       .  S
N518        C526   1.352       .  A
N519        N521   1.308       .  A
N519        N520   1.319       .  A
N519       Mn537   2.167       .  S
N520        C527   1.352       .  A
N521        N522   1.315       .  A
N521       Mn525   2.172       .  S
N522        C527   1.350       .  A
N523        N524   1.323       .  A
N523       Mn537   2.207       .  S
N524        C526   1.351       .  A
Mn525      Cl538   2.533       .  S
C526        C866   1.491       .  S
C527        C981   1.467       .  S
N528        N529   1.312       .  A
N528        N534   1.319       .  A
N528       Mn536   2.177       .  S
N529        C539   1.348   1_565  A
N530        N531   1.302       .  A
N530        N532   1.311       .  A
N530       Mn537   2.117       .  S
N531        C540   1.330       .  A
N532        N533   1.332       .  A
N532       Mn536   2.248       .  S
N533        C540   1.368       .  A
N534        N535   1.323       .  A
N534       Mn537   2.230       .  S
N535        C539   1.357   1_565  A
Mn536      Cl538   2.567       .  S
Mn537      Cl538   2.486       .  S
C539        C933   1.480       .  S
C540        C850   1.463       .  S
N541        N542   1.309       .  A
N541        N547   1.316       .  A
N541       Mn570   2.141       .  S
N542        C549   1.338       .  A
N543        N545   1.317   1_655  A
N543        N544   1.326       .  A
N543       Mn559   2.228       .  S
N544        C550   1.360   1_655  A
N545        N546   1.310       .  A
N545       Mn570   2.158       .  S
N546        C550   1.340       .  A
N547        N548   1.327       .  A
N547       Mn559   2.235   1_455  S
N548        C549   1.359       .  A
C549       C1717   1.458       .  S
C550        C834   1.466       .  S
N551        N557   1.323       .  A
N551        N552   1.317       .  A
N551       Mn581   2.213       .  S
N552        C560   1.351       .  A
N553        N554   1.317       .  A
N553        N555   1.318       .  A
N553       Mn559   2.200       .  S
N554        C561   1.351       .  A
N555        N556   1.332       .  A
N555       Mn581   2.255       .  S
N556        C561   1.362       .  A
N557        N558   1.331       .  A
N557       Mn559   2.253       .  S
N558        C560   1.360       .  A
Mn559      Cl583   2.550   1_655  S
C560        C786   1.502       .  S
C561       C1509   1.499       .  S
N562        N563   1.315       .  A
N562        N568   1.308       .  A
N562       Mn570   2.164       .  S
N563        C571   1.349       .  A
N564        N566   1.307       .  A
N564        N565   1.319       .  A
N564       Mn582   2.176       .  S
N565        C572   1.351       .  A
N566        N567   1.320       .  A
N566       Mn570   2.191       .  S
N567        C572   1.358       .  A
N568        N569   1.322       .  A
N568       Mn582   2.194       .  S
N569        C571   1.356       .  A
Mn570      Cl583   2.534       .  S
C571       C1029   1.472       .  S
C572        C802   1.486       .  S
N573        N574   1.314   1_545  A
N573        N579   1.315   1_655  A
N573       Mn581   2.162       .  S
N574        C584   1.348   1_655  A
N575        N576   1.311       .  A
N575        N577   1.320   1_455  A
N575       Mn582   2.163       .  S
N576        C585   1.338   1_455  A
N577        N578   1.332       .  A
N577       Mn581   2.264       .  S
N578        C585   1.364       .  A
N579        N580   1.314   1_545  A
N579       Mn582   2.183       .  S
N580        C584   1.347       .  A
Mn581      Cl583   2.543   1_655  S
Mn582      Cl583   2.528       .  S
C584        C821   1.453       .  S
C585        C946   1.482       .  S
N586        N587   1.326       .  A
N586        N592   1.318       .  A
N586       Mn615   2.220       .  S
N587        C594   1.360       .  A
N588        N590   1.311       .  A
N588        N589   1.313       .  A
N588       Mn604   2.148       .  S
N589        C595   1.345       .  A
N590        N591   1.316       .  A
N590       Mn615   2.174       .  S
N591        C595   1.349       .  A
N592        N593   1.319       .  A
N592       Mn604   2.227       .  S
N593        C594   1.354       .  A
C594       C1589   1.503       .  S
C595        C818   1.449       .  S
N596        N602   1.317       .  A
N596        N597   1.315       .  A
N596       Mn626   2.170       .  S
N597        C605   1.346       .  A
N598        N599   1.311   1_455  A
N598        N600   1.318   1_455  A
N598       Mn604   2.150       .  S
N599        C606   1.340       .  A
N600        N601   1.326       .  A
N600       Mn626   2.212       .  S
N601        C606   1.353       .  A
N602        N603   1.328       .  A
N602       Mn604   2.247   1_655  S
N603        C605   1.359       .  A
Mn604      Cl628   2.516       .  S
C605        C754   1.477       .  S
C606       C1410   1.474       .  S
N607        N608   1.325       .  A
N607        N613   1.320       .  A
N607       Mn615   2.226       .  S
N608        C616   1.353       .  A
N609        N611   1.314       .  A
N609        N610   1.327       .  A
N609       Mn627   2.226       .  S
N610        C617   1.358       .  A
N611        N612   1.323       .  A
N611       Mn615   2.210       .  S
N612        C617   1.354       .  A
N613        N614   1.326       .  A
N613       Mn627   2.212       .  S
N614        C616   1.351       .  A
Mn615      Cl628   2.546       .  S
C616        C965   1.505       .  S
C617        C770   1.495       .  S
N618        N619   1.312       .  A
N618        N624   1.322       .  A
N618       Mn626   2.179   1_455  S
N619        C629   1.343       .  A
N620        N621   1.315       .  A
N620        N622   1.312   1_455  A
N620       Mn627   2.172       .  S
N621        C630   1.346   1_455  A
N622        N623   1.325       .  A
N622       Mn626   2.203       .  S
N623        C630   1.355       .  A
N624        N625   1.323       .  A
N624       Mn627   2.227       .  S
N625        C629   1.358       .  A
Mn626      Cl628   2.533   1_655  S
Mn627      Cl628   2.543       .  S
C629        C837   1.472       .  S
C630       C1013   1.468       .  S
N631        N632   1.337       .  A
N631        N637   1.315       .  A
N631       Mn660   2.284       .  S
N632        C639   1.367       .  A
N633        N635   1.318       .  A
N633        N634   1.331       .  A
N633       Mn649   2.270       .  S
N634        C640   1.360       .  A
N635        N636   1.316       .  A
N635       Mn660   2.166       .  S
N636        C640   1.347       .  A
N637        N638   1.307       .  A
N637       Mn649   2.143       .  S
N638        C639   1.330       .  A
C639       C1493   1.495       .  S
C640        C789   1.503       .  S
N641        N647   1.311       .  A
N641        N642   1.318       .  A
N641       Mn671   2.180       .  S
N642        C650   1.351       .  A
N643        N644   1.325       .  A
N643        N645   1.313       .  A
N643       Mn649   2.214       .  S
N644        C651   1.353       .  A
N645        N646   1.319       .  A
N645       Mn671   2.171       .  S
N646        C651   1.347       .  A
N647        N648   1.312       .  A
N647       Mn649   2.153       .  S
N648        C650   1.346       .  A
Mn649      Cl673   2.477       .  S
C650        C741   1.443       .  S
C651       C1730   1.477       .  S
N652        N653   1.332       .  A
N652        N658   1.313       .  A
N652       Mn660   2.262       .  S
N653        C661   1.369       .  A
N654        N656   1.324       .  A
N654        N655   1.331   1_545  A
N654       Mn672   2.282       .  S
N655        C662   1.365       .  A
N656        N657   1.313   1_545  A
N656       Mn660   2.175       .  S
N657        C662   1.343       .  A
N658        N659   1.302       .  A
N658       Mn672   2.116       .  S
N659        C661   1.330       .  A
Mn660      Cl673   2.561       .  S
C661        C853   1.463       .  S
C662        C725   1.499       .  S
N663        N664   1.313       .  A
N663        N669   1.312       .  A
N663       Mn671   2.173       .  S
N664        C674   1.346       .  A
N665        N666   1.326       .  A
N665        N667   1.312       .  A
N665       Mn672   2.241       .  S
N666        C675   1.360       .  A
N667        N668   1.322       .  A
N667       Mn671   2.187       .  S
N668        C675   1.354       .  A
N669        N670   1.326       .  A
N669       Mn672   2.216       .  S
N670        C674   1.362       .  A
Mn671      Cl673   2.552       .  S
Mn672      Cl673   2.500       .  S
C674        C805   1.482       .  S
C675        C901   1.503       .  S
N676        N677   1.331       .  A
N676        N682   1.315       .  A
N676       Mn705   2.261       .  S
N677        C684   1.365       .  A
N678        N680   1.317       .  A
N678        N679   1.332       .  A
N678       Mn694   2.271       .  S
N679        C685   1.364       .  A
N680        N681   1.318       .  A
N680       Mn705   2.172       .  S
N681        C685   1.346       .  A
N682        N683   1.303       .  A
N682       Mn694   2.110       .  S
N683        C684   1.333       .  A
C684       C1605   1.463       .  S
C685        C773   1.494       .  S
N686        N692   1.312       .  A
N686        N687   1.322       .  A
N686       Mn716   2.204       .  S
N687        C695   1.355       .  A
N688        N689   1.329       .  A
N688        N690   1.314       .  A
N688       Mn694   2.262       .  S
N689        C696   1.362       .  A
N690        N691   1.316       .  A
N690       Mn716   2.154       .  S
N691        C696   1.346       .  A
N692        N693   1.307       .  A
N692       Mn694   2.138       .  S
N693        C695   1.342       .  A
Mn694      Cl718   2.514       .  S
C695        C738   1.453       .  S
C696       C1397   1.482       .  S
N697        N698   1.331       .  A
N697        N703   1.317       .  A
N697       Mn705   2.254       .  S
N698        C706   1.363       .  A
N699        N701   1.322       .  A
N699        N700   1.332       .  A
N699       Mn717   2.278       .  S
N700        C707   1.365       .  A
N701        N702   1.313       .  A
N701       Mn705   2.161       .  S
N702        C707   1.341       .  A
N703        N704   1.309       .  A
N703       Mn717   2.150       .  S
N704        C706   1.338       .  A
Mn705      Cl718   2.556       .  S
C706        C869   1.472       .  S
C707        C722   1.495       .  S
N708        N709   1.323       .  A
N708        N714   1.316       .  A
N708       Mn716   2.218       .  S
N709        C719   1.356       .  A
N710        N711   1.330       .  A
N710        N712   1.313       .  A
N710       Mn717   2.252       .  S
N711        C720   1.363       .  A
N712        N713   1.314       .  A
N712       Mn716   2.143       .  S
N713        C720   1.340       .  A
N714        N715   1.322       .  A
N714       Mn717   2.210       .  S
N715        C719   1.354       .  A
Mn716      Cl718   2.565       .  S
Mn717      Cl718   2.519       .  S
C719        C757   1.485       .  S
C720        C882   1.479       .  S
C721        C722   1.414       .  A
C721        C726   1.409       .  A
C721        H728   1.083       .  S
C722        C723   1.408       .  A
C723        C724   1.409       .  A
C723        C730   1.506       .  S
C724        C725   1.416       .  A
C724        H729   1.082       .  S
C725        C726   1.411       .  A
C726        C727   1.506       .  S
C727        H731   1.111       .  S
C727        H732   1.110       .  S
C727        H733   1.110       .  S
C730        H734   1.110       .  S
C730        H735   1.110       .  S
C730        H736   1.111       .  S
C737        C738   1.402       .  A
C737        C742   1.402       .  A
C737        H744   1.083       .  S
C738        C739   1.416       .  A
C739        C740   1.385       .  A
C739        C746   1.513       .  S
C740        C741   1.391       .  A
C740        H745   1.085       .  S
C741        C742   1.406       .  A
C742        C743   1.505       .  S
C743        H747   1.111       .  S
C743        H748   1.111       .  S
C743        H749   1.110       .  S
C746        H750   1.110       .  S
C746        H751   1.109       .  S
C746        H752   1.111       .  S
C753        C754   1.404       .  A
C753        C758   1.409       .  A
C753        H760   1.084       .  S
C754        C755   1.411       .  A
C755        C756   1.406       .  A
C755        C762   1.507       .  S
C756        C757   1.405       .  A
C756        H761   1.084       .  S
C757        C758   1.415       .  A
C758        C759   1.505       .  S
C759        H763   1.111       .  S
C759        H764   1.111       .  S
C759        H765   1.109       .  S
C762        H766   1.110       .  S
C762        H767   1.110       .  S
C762        H768   1.111       .  S
C769        C770   1.404       .  A
C769        C774   1.412       .  A
C769        H776   1.084       .  S
C770        C771   1.416       .  A
C771        C772   1.415       .  A
C771        C778   1.506       .  S
C772        C773   1.406       .  A
C772        H777   1.083       .  S
C773        C774   1.417       .  A
C774        C775   1.507       .  S
C775        H779   1.111       .  S
C775        H780   1.110       .  S
C775        H781   1.110       .  S
C778        H782   1.110       .  S
C778        H783   1.111       .  S
C778        H784   1.111       .  S
C785        C786   1.403       .  A
C785        C790   1.400       .  A
C785        H792   1.084       .  S
C786        C787   1.418       .  A
C787        C788   1.421       .  A
C787        C794   1.504       .  S
C788        C789   1.410       .  A
C788        H793   1.084       .  S
C789        C790   1.423       .  A
C790        C791   1.512       .  S
C791        H795   1.111       .  S
C791        H796   1.110       .  S
C791        H797   1.109       .  S
C794        H798   1.110       .  S
C794        H799   1.110       .  S
C794        H800   1.111       .  S
C801        C802   1.402       .  A
C801        C806   1.400       .  A
C801        H808   1.085       .  S
C802        C803   1.421       .  A
C803        C804   1.406       .  A
C803        C810   1.507       .  S
C804        C805   1.402       .  A
C804        H809   1.084       .  S
C805        C806   1.418       .  A
C806        C807   1.510       .  S
C807        H811   1.111       .  S
C807        H812   1.108       .  S
C807        H813   1.107       .  S
C810        H814   1.111   1_545  S
C810        H815   1.109       .  S
C810        H816   1.111   1_545  S
C817        C818   1.397       .  A
C817        C822   1.393   1_455  A
C817        H824   1.084   1_455  S
C818        C819   1.410       .  A
C819        C820   1.394       .  A
C819        C826   1.508       .  S
C820        C821   1.399       .  A
C820        H825   1.084       .  S
C821        C822   1.413   1_455  A
C822        C823   1.509       .  S
C823        H827   1.111       .  S
C823        H828   1.109       .  S
C823        H829   1.111       .  S
C826        H830   1.111       .  S
C826        H831   1.109       .  S
C826        H832   1.111       .  S
C833        C834   1.404       .  A
C833        C838   1.400       .  A
C833        H840   1.085       .  S
C834        C835   1.409       .  A
C835        C836   1.400       .  A
C835        C842   1.507   1_455  S
C836        C837   1.406       .  A
C836        H841   1.085       .  S
C837        C838   1.413       .  A
C838        C839   1.508       .  S
C839        H843   1.109       .  S
C839        H844   1.111       .  S
C839        H845   1.109       .  S
C842        H846   1.110       .  S
C842        H847   1.111   1_655  S
C842        H848   1.111       .  S
C849        C850   1.405   1_545  A
C849        C854   1.406       .  A
C849        H856   1.084       .  S
C850        C851   1.413       .  A
C851        C852   1.404       .  A
C851        C858   1.508       .  S
C852        C853   1.405   1_565  A
C852        H857   1.085       .  S
C853        C854   1.412       .  A
C854        C855   1.506       .  S
C855        H859   1.111       .  S
C855        H860   1.109       .  S
C855        H861   1.110       .  S
C858        H862   1.110       .  S
C858        H863   1.108       .  S
C858        H864   1.111       .  S
C865        C866   1.408       .  A
C865        C870   1.406       .  A
C865        H872   1.084       .  S
C866        C867   1.417       .  A
C867        C868   1.409       .  A
C867        C874   1.508       .  S
C868        C869   1.405       .  A
C868        H873   1.085       .  S
C869        C870   1.410       .  A
C870        C871   1.507       .  S
C871        H875   1.111       .  S
C871        H876   1.110       .  S
C871        H877   1.110       .  S
C874        H878   1.110       .  S
C874        H879   1.107       .  S
C874        H880   1.111       .  S
C881        C882   1.409       .  A
C881        C886   1.409       .  A
C881        H888   1.084       .  S
C882        C883   1.405       .  A
C883        C884   1.404       .  A
C883        C890   1.506       .  S
C884        C885   1.412       .  A
C884        H889   1.083       .  S
C885        C886   1.413       .  A
C886        C887   1.506       .  S
C887        H891   1.111       .  S
C887        H892   1.111       .  S
C887        H893   1.109       .  S
C890        H894   1.110       .  S
C890        H895   1.111       .  S
C890        H896   1.111       .  S
C897        C898   1.402       .  A
C897        C902   1.414       .  A
C897        H904   1.084       .  S
C898        C899   1.415       .  A
C899        C900   1.409       .  A
C899        C906   1.508       .  S
C900        C901   1.407       .  A
C900        H905   1.084       .  S
C901        C902   1.423       .  A
C902        C903   1.506       .  S
C903        H907   1.111       .  S
C903        H908   1.111       .  S
C903        H909   1.109       .  S
C906        H910   1.110       .  S
C906        H911   1.109       .  S
C906        H912   1.109       .  S
C913        C914   1.398       .  A
C913        C918   1.381       .  A
C913        H920   1.083       .  S
C914        C915   1.409       .  A
C915        C916   1.402       .  A
C915        C922   1.506       .  S
C916        C917   1.404       .  A
C916        H921   1.084       .  S
C917        C918   1.413       .  A
C918        C919   1.513       .  S
C919        H923   1.111       .  S
C919        H924   1.109       .  S
C919        H925   1.111       .  S
C922        H926   1.111       .  S
C922        H927   1.109       .  S
C922        H928   1.111       .  S
C929        C930   1.407       .  A
C929        C934   1.407       .  A
C929        H936   1.083       .  S
C930        C931   1.416       .  A
C931        C932   1.394       .  A
C931        C938   1.511       .  S
C932        C933   1.404       .  A
C932        H937   1.083       .  S
C933        C934   1.413       .  A
C934        C935   1.506       .  S
C935        H939   1.111       .  S
C935        H940   1.109       .  S
C935        H941   1.111       .  S
C938        H942   1.111       .  S
C938        H943   1.109       .  S
C938        H944   1.111       .  S
C945        C946   1.408   1_465  A
C945        C950   1.406       .  A
C945        H952   1.085       .  S
C946        C947   1.409       .  A
C947        C948   1.412   1_545  A
C947        C954   1.504       .  S
C948        C949   1.409   1_655  A
C948        H953   1.083   1_565  S
C949        C950   1.412       .  A
C950        C951   1.508       .  S
C951        H955   1.111       .  S
C951        H956   1.109       .  S
C951        H957   1.111       .  S
C954        H958   1.111       .  S
C954        H959   1.110       .  S
C954        H960   1.111       .  S
C961        C962   1.402       .  A
C961        C966   1.409   1_655  A
C961        H968   1.085       .  S
C962        C963   1.417   1_655  A
C963        C964   1.414       .  A
C963        C970   1.507   1_455  S
C964        C965   1.408       .  A
C964        H969   1.083       .  S
C965        C966   1.422       .  A
C966        C967   1.504       .  S
C967        H971   1.111   1_455  S
C967        H972   1.110       .  S
C967        H973   1.109       .  S
C970        H974   1.110       .  S
C970        H975   1.110   1_655  S
C970        H976   1.111   1_655  S
C977        C978   1.398       .  A
C977        C982   1.394       .  A
C977        H984   1.085       .  S
C978        C979   1.405       .  A
C979        C980   1.401       .  A
C979        C986   1.505       .  S
C980        C981   1.406       .  A
C980        H985   1.084       .  S
C981        C982   1.412       .  A
C982        C983   1.505       .  S
C983        H987   1.111       .  S
C983        H988   1.109       .  S
C983        H989   1.105       .  S
C986        H990   1.110       .  S
C986        H991   1.110       .  S
C986        H992   1.111       .  S
C993        C994   1.402       .  A
C993        C998   1.403       .  A
C993       H1000   1.084       .  S
C994        C995   1.416       .  A
C995        C996   1.407       .  A
C995       C1002   1.500       .  S
C996        C997   1.399       .  A
C996       H1001   1.084       .  S
C997        C998   1.413       .  A
C998        C999   1.508       .  S
C999       H1003   1.111       .  S
C999       H1004   1.111       .  S
C999       H1005   1.109       .  S
C1002      H1006   1.109       .  S
C1002      H1007   1.109       .  S
C1002      H1008   1.111       .  S
C1009      C1010   1.408       .  A
C1009      C1014   1.401       .  A
C1009      H1016   1.083       .  S
C1010      C1011   1.420       .  A
C1011      C1012   1.406       .  A
C1011      C1018   1.507       .  S
C1012      C1013   1.401       .  A
C1012      H1017   1.084       .  S
C1013      C1014   1.407       .  A
C1014      C1015   1.508       .  S
C1015      H1019   1.111       .  S
C1015      H1020   1.110       .  S
C1015      H1021   1.109       .  S
C1018      H1022   1.110       .  S
C1018      H1023   1.109       .  S
C1018      H1024   1.111       .  S
C1025      C1026   1.406       .  A
C1025      C1030   1.405       .  A
C1025      H1032   1.084       .  S
C1026      C1027   1.416       .  A
C1027      C1028   1.398       .  A
C1027      C1034   1.510       .  S
C1028      C1029   1.401       .  A
C1028      H1033   1.085       .  S
C1029      C1030   1.411       .  A
C1030      C1031   1.506       .  S
C1031      H1035   1.111       .  S
C1031      H1036   1.111       .  S
C1031      H1037   1.109       .  S
C1034      H1038   1.110       .  S
C1034      H1039   1.108       .  S
C1034      H1040   1.109       .  S
C1041      C1042   1.396       .  A
C1041      C1046   1.396       .  A
C1041      H1048   1.085       .  S
C1042      C1043   1.407       .  A
C1043      C1044   1.403       .  A
C1043      C1050   1.505       .  S
C1044      C1045   1.405       .  A
C1044      H1049   1.084       .  S
C1045      C1046   1.417       .  A
C1046      C1047   1.510       .  S
C1047      H1051   1.111       .  S
C1047      H1052   1.109   1_455  S
C1047      H1053   1.110       .  S
C1050      H1054   1.110       .  S
C1050      H1055   1.111       .  S
C1050      H1056   1.111       .  S
C1057      C1058   1.401       .  A
C1057      C1062   1.410       .  A
C1057      H1064   1.084       .  S
C1058      C1059   1.412   1_655  A
C1059      C1060   1.393       .  A
C1059      C1066   1.512       .  S
C1060      C1061   1.405   1_455  A
C1060      H1065   1.083       .  S
C1061      C1062   1.420       .  A
C1062      C1063   1.506       .  S
C1063      H1067   1.111       .  S
C1063      H1068   1.109       .  S
C1063      H1069   1.111       .  S
C1066      H1070   1.109       .  S
C1066      H1071   1.110       .  S
C1066      H1072   1.111       .  S
C1073      C1074   1.407       .  A
C1073      C1078   1.398       .  A
C1073      H1080   1.079       .  S
C1074      C1075   1.411       .  A
C1075      C1076   1.405       .  A
C1075      C1082   1.506       .  S
C1076      C1077   1.409       .  A
C1076      H1081   1.082       .  S
C1077      C1078   1.412       .  A
C1078      C1079   1.511       .  S
C1079      H1083   1.110       .  S
C1079      H1084   1.108       .  S
C1079      H1085   1.110       .  S
C1082      H1086   1.110       .  S
C1082      H1087   1.110       .  S
C1082      H1088   1.111       .  S
C1089      C1090   1.410       .  A
C1089      C1094   1.419       .  A
C1089      H1096   1.084       .  S
C1090      C1091   1.419       .  A
C1091      C1092   1.396       .  A
C1091      C1098   1.511       .  S
C1092      C1093   1.402       .  A
C1092      H1097   1.084       .  S
C1093      C1094   1.415       .  A
C1094      C1095   1.503       .  S
C1095      H1099   1.111       .  S
C1095      H1100   1.110       .  S
C1095      H1101   1.110       .  S
C1098      H1102   1.109       .  S
C1098      H1103   1.108       .  S
C1098      H1104   1.111       .  S
C1105      C1106   1.404       .  A
C1105      C1110   1.408       .  A
C1105      H1112   1.085       .  S
C1106      C1107   1.407       .  A
C1107      C1108   1.409       .  A
C1107      C1114   1.505       .  S
C1108      C1109   1.408       .  A
C1108      H1113   1.080       .  S
C1109      C1110   1.420       .  A
C1110      C1111   1.508       .  S
C1111      H1115   1.111       .  S
C1111      H1116   1.110       .  S
C1111      H1117   1.110       .  S
C1114      H1118   1.110       .  S
C1114      H1119   1.110       .  S
C1114      H1120   1.106       .  S
C1121      C1122   1.412       .  A
C1121      C1126   1.403       .  A
C1121      H1128   1.083       .  S
C1122      C1123   1.418       .  A
C1123      C1124   1.416       .  A
C1123      C1130   1.505       .  S
C1124      C1125   1.408       .  A
C1124      H1129   1.084       .  S
C1125      C1126   1.408       .  A
C1126      C1127   1.508       .  S
C1127      H1131   1.111       .  S
C1127      H1132   1.109       .  S
C1127      H1133   1.110       .  S
C1130      H1134   1.110       .  S
C1130      H1135   1.110       .  S
C1130      H1136   1.111       .  S
C1137      C1138   1.411       .  A
C1137      C1142   1.412       .  A
C1137      H1144   1.083       .  S
C1138      C1139   1.413       .  A
C1139      C1140   1.410       .  A
C1139      C1146   1.507       .  S
C1140      C1141   1.412       .  A
C1140      H1145   1.079       .  S
C1141      C1142   1.418       .  A
C1142      C1143   1.508       .  S
C1143      H1147   1.111       .  S
C1143      H1148   1.110       .  S
C1143      H1149   1.110       .  S
C1146      H1150   1.110       .  S
C1146      H1151   1.109       .  S
C1146      H1152   1.107       .  S
C1153      C1154   1.403       .  A
C1153      C1158   1.410       .  A
C1153      H1160   1.084       .  S
C1154      C1155   1.405       .  A
C1155      C1156   1.402       .  A
C1155      C1162   1.507       .  S
C1156      C1157   1.412       .  A
C1156      H1161   1.083       .  S
C1157      C1158   1.419       .  A
C1158      C1159   1.506       .  S
C1159      H1163   1.111       .  S
C1159      H1164   1.110       .  S
C1159      H1165   1.110       .  S
C1162      H1166   1.110       .  S
C1162      H1167   1.109       .  S
C1162      H1168   1.111       .  S
C1169      C1170   1.395       .  A
C1169      C1174   1.393       .  A
C1169      H1176   1.086       .  S
C1170      C1171   1.408       .  A
C1171      C1172   1.414       .  A
C1171      C1178   1.503       .  S
C1172      C1173   1.413       .  A
C1172      H1177   1.083       .  S
C1173      C1174   1.422       .  A
C1174      C1175   1.503       .  S
C1175      H1179   1.110       .  S
C1175      H1180   1.103       .  S
C1175      H1181   1.110       .  S
C1178      H1182   1.111       .  S
C1178      H1183   1.110       .  S
C1178      H1184   1.111       .  S
C1185      C1186   1.401       .  A
C1185      C1190   1.405       .  A
C1185      H1192   1.085       .  S
C1186      C1187   1.410       .  A
C1187      C1188   1.416       .  A
C1187      C1194   1.504       .  S
C1188      C1189   1.412       .  A
C1188      H1193   1.083       .  S
C1189      C1190   1.422       .  A
C1190      C1191   1.510       .  S
C1191      H1195   1.111       .  S
C1191      H1196   1.109       .  S
C1191      H1197   1.110       .  S
C1194      H1198   1.110       .  S
C1194      H1199   1.111       .  S
C1194      H1200   1.111       .  S
C1201      C1202   1.405       .  A
C1201      C1206   1.410       .  A
C1201      H1208   1.084       .  S
C1202      C1203   1.425       .  A
C1203      C1204   1.404       .  A
C1203      C1210   1.510       .  S
C1204      C1205   1.402       .  A
C1204      H1209   1.083       .  S
C1205      C1206   1.420       .  A
C1206      C1207   1.504       .  S
C1207      H1211   1.111       .  S
C1207      H1212   1.110       .  S
C1207      H1213   1.110       .  S
C1210      H1214   1.110       .  S
C1210      H1215   1.110       .  S
C1210      H1216   1.111       .  S
C1217      C1218   1.389       .  A
C1217      C1222   1.402       .  A
C1217      H1224   1.084       .  S
C1218      C1219   1.434       .  A
C1219      C1220   1.398       .  A
C1219      C1226   1.512       .  S
C1220      C1221   1.386       .  A
C1220      H1225   1.085       .  S
C1221      C1222   1.431       .  A
C1222      C1223   1.510       .  S
C1223      H1227   1.111       .  S
C1223      H1228   1.110       .  S
C1223      H1229   1.105       .  S
C1226      H1230   1.108       .  S
C1226      H1231   1.109       .  S
C1226      H1232   1.111       .  S
C1233      C1234   1.400       .  A
C1233      C1238   1.412       .  A
C1233      H1240   1.084       .  S
C1234      C1235   1.427       .  A
C1235      C1236   1.406       .  A
C1235      C1242   1.510       .  S
C1236      C1237   1.398       .  A
C1236      H1241   1.084       .  S
C1237      C1238   1.428       .  A
C1238      C1239   1.508       .  S
C1239      H1243   1.111       .  S
C1239      H1244   1.111       .  S
C1239      H1245   1.109       .  S
C1242      H1246   1.110       .  S
C1242      H1247   1.109       .  S
C1242      H1248   1.111       .  S
C1249      C1250   1.400       .  A
C1249      C1254   1.396   1_655  A
C1249      H1256   1.084       .  S
C1250      C1251   1.407       .  A
C1251      C1252   1.394   1_655  A
C1251      C1258   1.509       .  S
C1252      C1253   1.405       .  A
C1252      H1257   1.083       .  S
C1253      C1254   1.418       .  A
C1254      C1255   1.509       .  S
C1255      H1259   1.111       .  S
C1255      H1260   1.110       .  S
C1255      H1261   1.110       .  S
C1258      H1262   1.108       .  S
C1258      H1263   1.110       .  S
C1258      H1264   1.111       .  S
C1265      C1266   1.409       .  A
C1265      C1270   1.396       .  A
C1265      H1272   1.084       .  S
C1266      C1267   1.416       .  A
C1267      C1268   1.406       .  A
C1267      C1274   1.498       .  S
C1268      C1269   1.399       .  A
C1268      H1273   1.083       .  S
C1269      C1270   1.407       .  A
C1270      C1271   1.507       .  S
C1271      H1275   1.111       .  S
C1271      H1276   1.110       .  S
C1271      H1277   1.110       .  S
C1274      H1278   1.096       .  S
C1274      H1279   1.110       .  S
C1274      H1280   1.111       .  S
C1281      C1282   1.412       .  A
C1281      C1286   1.405       .  A
C1281      H1288   1.085       .  S
C1282      C1283   1.414       .  A
C1283      C1284   1.413       .  A
C1283      C1290   1.505       .  S
C1284      C1285   1.412       .  A
C1284      H1289   1.084       .  S
C1285      C1286   1.412       .  A
C1286      C1287   1.508       .  S
C1287      H1291   1.111       .  S
C1287      H1292   1.110       .  S
C1287      H1293   1.110       .  S
C1290      H1294   1.110       .  S
C1290      H1295   1.109       .  S
C1290      H1296   1.111       .  S
C1297      C1298   1.396       .  A
C1297      C1302   1.393       .  A
C1297      H1304   1.084       .  S
C1298      C1299   1.419       .  A
C1299      C1300   1.388       .  A
C1299      C1306   1.511       .  S
C1300      C1301   1.393       .  A
C1300      H1305   1.085       .  S
C1301      C1302   1.414       .  A
C1302      C1303   1.509       .  S
C1303      H1307   1.111       .  S
C1303      H1308   1.108       .  S
C1303      H1309   1.110       .  S
C1306      H1310   1.109       .  S
C1306      H1311   1.111       .  S
C1306      H1312   1.111       .  S
C1313      C1314   1.401       .  A
C1313      C1318   1.406   1_455  A
C1313      H1320   1.084       .  S
C1314      C1315   1.415       .  A
C1315      C1316   1.392   1_455  A
C1315      C1322   1.501       .  S
C1316      C1317   1.395       .  A
C1316      H1321   1.083       .  S
C1317      C1318   1.419       .  A
C1318      C1319   1.508       .  S
C1319      H1323   1.111       .  S
C1319      H1324   1.110       .  S
C1319      H1325   1.109       .  S
C1322      H1326   1.104       .  S
C1322      H1327   1.110       .  S
C1322      H1328   1.111       .  S
C1329      C1330   1.402       .  A
C1329      C1334   1.412       .  A
C1329      H1336   1.085       .  S
C1330      C1331   1.417       .  A
C1331      C1332   1.422       .  A
C1331      C1338   1.503       .  S
C1332      C1333   1.408       .  A
C1332      H1337   1.084       .  S
C1333      C1334   1.415       .  A
C1334      C1335   1.500       .  S
C1335      H1339   1.109       .  S
C1335      H1340   1.110       .  S
C1335      H1341   1.110       .  S
C1338      H1342   1.110       .  S
C1338      H1343   1.110       .  S
C1338      H1344   1.111       .  S
C1345      C1346   1.397       .  A
C1345      C1350   1.398       .  A
C1345      H1352   1.085       .  S
C1346      C1347   1.421       .  A
C1347      C1348   1.410       .  A
C1347      C1354   1.506       .  S
C1348      C1349   1.402       .  A
C1348      H1353   1.083       .  S
C1349      C1350   1.410       .  A
C1350      C1351   1.496       .  S
C1351      H1355   1.110       .  S
C1351      H1356   1.109       .  S
C1351      H1357   1.108       .  S
C1354      H1358   1.110       .  S
C1354      H1359   1.110       .  S
C1354      H1360   1.111       .  S
C1361      C1362   1.405   1_556  A
C1361      C1366   1.405       .  A
C1361      H1368   1.085       .  S
C1362      C1363   1.399       .  A
C1363      C1364   1.394   1_554  A
C1363      C1370   1.508       .  S
C1364      C1365   1.413       .  A
C1364      H1369   1.082       .  S
C1365      C1366   1.415       .  A
C1366      C1367   1.506       .  S
C1367      H1371   1.111       .  S
C1367      H1372   1.109       .  S
C1367      H1373   1.110       .  S
C1370      H1374   1.110       .  S
C1370      H1375   1.110       .  S
C1370      H1376   1.111       .  S
C1377      C1378   1.396   1_556  A
C1377      C1382   1.408       .  A
C1377      H1384   1.085       .  S
C1378      C1379   1.418       .  A
C1379      C1380   1.415   1_554  A
C1379      C1386   1.507       .  S
C1380      C1381   1.408       .  A
C1380      H1385   1.083       .  S
C1381      C1382   1.429       .  A
C1382      C1383   1.501       .  S
C1383      H1387   1.111       .  S
C1383      H1388   1.109       .  S
C1383      H1389   1.105       .  S
C1386      H1390   1.111       .  S
C1386      H1391   1.109       .  S
C1386      H1392   1.111       .  S
C1393      C1394   1.405       .  A
C1393      C1398   1.399       .  A
C1393      H1400   1.085       .  S
C1394      C1395   1.412       .  A
C1395      C1396   1.417       .  A
C1395      C1402   1.503       .  S
C1396      C1397   1.409       .  A
C1396      H1401   1.083       .  S
C1397      C1398   1.410       .  A
C1398      C1399   1.509       .  S
C1399      H1403   1.111       .  S
C1399      H1404   1.108       .  S
C1399      H1405   1.111       .  S
C1402      H1406   1.111       .  S
C1402      H1407   1.110       .  S
C1402      H1408   1.111       .  S
C1409      C1410   1.413       .  A
C1409      C1414   1.401       .  A
C1409      H1416   1.083       .  S
C1410      C1411   1.403       .  A
C1411      C1412   1.401       .  A
C1411      C1418   1.506       .  S
C1412      C1413   1.413       .  A
C1412      H1417   1.085       .  S
C1413      C1414   1.399       .  A
C1414      C1415   1.504       .  S
C1415      H1419   1.110       .  S
C1415      H1420   1.111       .  S
C1415      H1421   1.110       .  S
C1418      H1422   1.110       .  S
C1418      H1423   1.111       .  S
C1418      H1424   1.111       .  S
C1425      C1426   1.398       .  A
C1425      C1430   1.405   1_565  A
C1425      H1432   1.085   1_565  S
C1426      C1427   1.422       .  A
C1427      C1428   1.399   1_556  A
C1427      C1434   1.511   1_556  S
C1428      C1429   1.396   1_565  A
C1428      H1433   1.085       .  S
C1429      C1430   1.423   1_554  A
C1430      C1431   1.505       .  S
C1431      H1435   1.109       .  S
C1431      H1436   1.105   1_556  S
C1431      H1437   1.111   1_556  S
C1434      H1438   1.110   1_554  S
C1434      H1439   1.108   1_554  S
C1434      H1440   1.111       .  S
C1441      C1442   1.405       .  A
C1441      C1446   1.415   1_554  A
C1441      H1448   1.083       .  S
C1442      C1443   1.424       .  A
C1443      C1444   1.401   1_554  A
C1443      C1450   1.510       .  S
C1444      C1445   1.397       .  A
C1444      H1449   1.085       .  S
C1445      C1446   1.415       .  A
C1446      C1447   1.505       .  S
C1447      H1451   1.111   1_556  S
C1447      H1452   1.110       .  S
C1447      H1453   1.110       .  S
C1450      H1454   1.109   1_554  S
C1450      H1455   1.105       .  S
C1450      H1456   1.110       .  S
C1457      C1458   1.409       .  A
C1457      C1462   1.410       .  A
C1457      H1464   1.083       .  S
C1458      C1459   1.420       .  A
C1459      C1460   1.410       .  A
C1459      C1466   1.508       .  S
C1460      C1461   1.409       .  A
C1460      H1465   1.083       .  S
C1461      C1462   1.419       .  A
C1462      C1463   1.507       .  S
C1463      H1467   1.111       .  S
C1463      H1468   1.110       .  S
C1463      H1469   1.110       .  S
C1466      H1470   1.110       .  S
C1466      H1471   1.110       .  S
C1466      H1472   1.111       .  S
C1473      C1474   1.413       .  A
C1473      C1478   1.417       .  A
C1473      H1480   1.083       .  S
C1474      C1475   1.418       .  A
C1475      C1476   1.411       .  A
C1475      C1482   1.508       .  S
C1476      C1477   1.411       .  A
C1476      H1481   1.082       .  S
C1477      C1478   1.418       .  A
C1478      C1479   1.506       .  S
C1479      H1483   1.111       .  S
C1479      H1484   1.110       .  S
C1479      H1485   1.110       .  S
C1482      H1486   1.110       .  S
C1482      H1487   1.110       .  S
C1482      H1488   1.111       .  S
C1489      C1490   1.391       .  A
C1489      C1494   1.406       .  A
C1489      H1496   1.085       .  S
C1490      C1491   1.418       .  A
C1491      C1492   1.411       .  A
C1491      C1498   1.496       .  S
C1492      C1493   1.395       .  A
C1492      H1497   1.084       .  S
C1493      C1494   1.433       .  A
C1494      C1495   1.510       .  S
C1495      H1499   1.111       .  S
C1495      H1500   1.106       .  S
C1495      H1501   1.109       .  S
C1498      H1502   1.110       .  S
C1498      H1503   1.105       .  S
C1498      H1504   1.101       .  S
C1505      C1506   1.410       .  A
C1505      C1510   1.401       .  A
C1505      H1512   1.083       .  S
C1506      C1507   1.422       .  A
C1507      C1508   1.423       .  A
C1507      C1514   1.504   1_545  S
C1508      C1509   1.411       .  A
C1508      H1513   1.084       .  S
C1509      C1510   1.414       .  A
C1510      C1511   1.511       .  S
C1511      H1515   1.111       .  S
C1511      H1516   1.110       .  S
C1511      H1517   1.108       .  S
C1514      H1518   1.105       .  S
C1514      H1519   1.108       .  S
C1514      H1520   1.110       .  S
C1521      C1522   1.409       .  A
C1521      C1526   1.405   1_554  A
C1521      H1528   1.085       .  S
C1522      C1523   1.416   1_554  A
C1523      C1524   1.423       .  A
C1523      C1530   1.505       .  S
C1524      C1525   1.413       .  A
C1524      H1529   1.083       .  S
C1525      C1526   1.413       .  A
C1526      C1527   1.509       .  S
C1527      H1531   1.111   1_556  S
C1527      H1532   1.110       .  S
C1527      H1533   1.109       .  S
C1530      H1534   1.110       .  S
C1530      H1535   1.107       .  S
C1530      H1536   1.111       .  S
C1537      C1538   1.406       .  A
C1537      C1542   1.425       .  A
C1537      H1544   1.080       .  S
C1538      C1539   1.415       .  A
C1539      C1540   1.386   1_556  A
C1539      C1546   1.503   1_556  S
C1540      C1541   1.394       .  A
C1540      H1545   1.087       .  S
C1541      C1542   1.421   1_554  A
C1542      C1543   1.503       .  S
C1543      H1547   1.110       .  S
C1543      H1548   1.110       .  S
C1543      H1549   1.110   1_556  S
C1546      H1550   1.109       .  S
C1546      H1551   1.109   1_554  S
C1546      H1552   1.111       .  S
C1553      C1554   1.405       .  A
C1553      C1558   1.405       .  A
C1553      H1560   1.084       .  S
C1554      C1555   1.417       .  A
C1555      C1556   1.405       .  A
C1555      C1562   1.508       .  S
C1556      C1557   1.406       .  A
C1556      H1561   1.083       .  S
C1557      C1558   1.419       .  A
C1558      C1559   1.509       .  S
C1559      H1563   1.111       .  S
C1559      H1564   1.109       .  S
C1559      H1565   1.111       .  S
C1562      H1566   1.110       .  S
C1562      H1567   1.110       .  S
C1562      H1568   1.111       .  S
C1569      C1570   1.405       .  A
C1569      C1574   1.409       .  A
C1569      H1576   1.084       .  S
C1570      C1571   1.419       .  A
C1571      C1572   1.405       .  A
C1571      C1578   1.509       .  S
C1572      C1573   1.403       .  A
C1572      H1577   1.084       .  S
C1573      C1574   1.418       .  A
C1574      C1575   1.507       .  S
C1575      H1579   1.111       .  S
C1575      H1580   1.110       .  S
C1575      H1581   1.111       .  S
C1578      H1582   1.111   1_455  S
C1578      H1583   1.109   1_455  S
C1578      H1584   1.111       .  S
C1585      C1586   1.403       .  A
C1585      C1590   1.404       .  A
C1585      H1592   1.085       .  S
C1586      C1587   1.417       .  A
C1587      C1588   1.413       .  A
C1587      C1594   1.506       .  S
C1588      C1589   1.411       .  A
C1588      H1593   1.084       .  S
C1589      C1590   1.422       .  A
C1590      C1591   1.509       .  S
C1591      H1595   1.111       .  S
C1591      H1596   1.110       .  S
C1591      H1597   1.110       .  S
C1594      H1598   1.104       .  S
C1594      H1599   1.110       .  S
C1594      H1600   1.110       .  S
C1601      C1602   1.402       .  A
C1601      C1606   1.393       .  A
C1601      H1608   1.086       .  S
C1602      C1603   1.415       .  A
C1603      C1604   1.411       .  A
C1603      C1610   1.505       .  S
C1604      C1605   1.406       .  A
C1604      H1609   1.083       .  S
C1605      C1606   1.413       .  A
C1606      C1607   1.510       .  S
C1607      H1611   1.111       .  S
C1607      H1612   1.111       .  S
C1607      H1613   1.109       .  S
C1610      H1614   1.110       .  S
C1610      H1615   1.111       .  S
C1610      H1616   1.111       .  S
C1617      C1618   1.402   1_565  A
C1617      C1622   1.412       .  A
C1617      H1624   1.084       .  S
C1618      C1619   1.412   1_554  A
C1619      C1620   1.400       .  A
C1619      C1626   1.516       .  S
C1620      C1621   1.408   1_545  A
C1620      H1625   1.081       .  S
C1621      C1622   1.418   1_556  A
C1622      C1623   1.494       .  S
C1623      H1627   1.111       .  S
C1623      H1628   1.110   1_554  S
C1623      H1629   1.107       .  S
C1626      H1630   1.110       .  S
C1626      H1631   1.106   1_556  S
C1626      H1632   1.105       .  S
C1633      C1634   1.399       .  A
C1633      C1638   1.405   1_556  A
C1633      H1640   1.085       .  S
C1634      C1635   1.418       .  A
C1635      C1636   1.406   1_556  A
C1635      C1642   1.508       .  S
C1636      C1637   1.400       .  A
C1636      H1641   1.084       .  S
C1637      C1638   1.420       .  A
C1638      C1639   1.509       .  S
C1639      H1643   1.111       .  S
C1639      H1644   1.108       .  S
C1639      H1645   1.111       .  S
C1642      H1646   1.110       .  S
C1642      H1647   1.109       .  S
C1642      H1648   1.111       .  S
C1649      C1650   1.400       .  A
C1649      C1654   1.402       .  A
C1649      H1656   1.084       .  S
C1650      C1651   1.415       .  A
C1651      C1652   1.416       .  A
C1651      C1658   1.505       .  S
C1652      C1653   1.411       .  A
C1652      H1657   1.083       .  S
C1653      C1654   1.424       .  A
C1654      C1655   1.511       .  S
C1655      H1659   1.111       .  S
C1655      H1660   1.111       .  S
C1655      H1661   1.109       .  S
C1658      H1662   1.110       .  S
C1658      H1663   1.110       .  S
C1658      H1664   1.111       .  S
C1665      C1666   1.404       .  A
C1665      C1670   1.395       .  A
C1665      H1672   1.083       .  S
C1666      C1667   1.417       .  A
C1667      C1668   1.404       .  A
C1667      C1674   1.507       .  S
C1668      C1669   1.398       .  A
C1668      H1673   1.084       .  S
C1669      C1670   1.407       .  A
C1670      C1671   1.509       .  S
C1671      H1675   1.111       .  S
C1671      H1676   1.110       .  S
C1671      H1677   1.110       .  S
C1674      H1678   1.110       .  S
C1674      H1679   1.109       .  S
C1674      H1680   1.111       .  S
C1681      C1682   1.394       .  A
C1681      C1686   1.399       .  A
C1681      H1688   1.085       .  S
C1682      C1683   1.416       .  A
C1683      C1684   1.409       .  A
C1683      C1690   1.506       .  S
C1684      C1685   1.401       .  A
C1684      H1689   1.084       .  S
C1685      C1686   1.425       .  A
C1686      C1687   1.510       .  S
C1687      H1691   1.111       .  S
C1687      H1692   1.110       .  S
C1687      H1693   1.102       .  S
C1690      H1694   1.110       .  S
C1690      H1695   1.110       .  S
C1690      H1696   1.111       .  S
C1697      C1698   1.399       .  A
C1697      C1702   1.397   1_655  A
C1697      H1704   1.085       .  S
C1698      C1699   1.415       .  A
C1699      C1700   1.404   1_655  A
C1699      C1706   1.507       .  S
C1700      C1701   1.398       .  A
C1700      H1705   1.085       .  S
C1701      C1702   1.413       .  A
C1702      C1703   1.509       .  S
C1703      H1707   1.111       .  S
C1703      H1708   1.110       .  S
C1703      H1709   1.110       .  S
C1706      H1710   1.110       .  S
C1706      H1711   1.108       .  S
C1706      H1712   1.111       .  S
C1713      C1714   1.397       .  A
C1713      C1718   1.399       .  A
C1713      H1720   1.084       .  S
C1714      C1715   1.412       .  A
C1715      C1716   1.401       .  A
C1715      C1722   1.507       .  S
C1716      C1717   1.398       .  A
C1716      H1721   1.084       .  S
C1717      C1718   1.413       .  A
C1718      C1719   1.508       .  S
C1719      H1723   1.111       .  S
C1719      H1724   1.110       .  S
C1719      H1725   1.110       .  S
C1722      H1726   1.110       .  S
C1722      H1727   1.110       .  S
C1722      H1728   1.111       .  S
C1729      C1730   1.392       .  A
C1729      C1734   1.400       .  A
C1729      H1736   1.084       .  S
C1730      C1731   1.417       .  A
C1731      C1732   1.411       .  A
C1731      C1738   1.506       .  S
C1732      C1733   1.402       .  A
C1732      H1737   1.084       .  S
C1733      C1734   1.424       .  A
C1734      C1735   1.507       .  S
C1735      H1739   1.111       .  S
C1735      H1740   1.108       .  S
C1735      H1741   1.099       .  S
C1738      H1742   1.107       .  S
C1738      H1743   1.110       .  S
C1738      H1744   1.111       .  S
