geometry optimzed in LAMMPS
_audit_creation_date              2020-11-30 
_audit_creation_method            'lammps2cif' 
_symmetry_space_group_name_H-M    'P1' 
_symmetry_Int_Tables_number       1 
_symmetry_cell_setting            triclinic 
loop_ 
_symmetry_equiv_pos_as_xyz 
  x,y,z 
_cell_length_a                    34.42040015377356 
_cell_length_b                    34.35844498041323 
_cell_length_c                    32.72640903504893 
_cell_angle_alpha                 91.92471614900252 
_cell_angle_beta                  89.04924760886081 
_cell_angle_gamma                 120.16468556711098 
loop_ 
_atom_site_label 
_atom_site_type_symbol 
_atom_site_fract_x 
_atom_site_fract_y 
_atom_site_fract_z 
_atom_site_charge 
C1          C  0.22186869  0.46159574  0.05769839     0.02730
C2          C  0.22448990  0.45972164  0.10002109    -0.13420
C3          C  0.24957791  0.99972143  0.12422003     0.00230
C4          C  0.27428948  0.04114657  0.10356756    -0.11940
C5          C  0.26908940  0.04268714  0.06135124     0.02730
C6          C  0.24115274  0.50299104  0.03944871    -0.11360
H7          H  0.20684237  0.42681197  0.11295497     0.08320
H8          H  0.29676461  0.07232105  0.11964622     0.05850
H9          H  0.23528256  0.50415254  0.34074011     0.05700
C10         C  0.23876527  0.45666726  0.23297539     0.02730
C11         C  0.23527163  0.45695937  0.19050323    -0.13420
C12         C  0.25072677  0.99823389  0.17017055     0.00230
C13         C  0.26620788  0.03820691  0.19472505    -0.11940
C14         C  0.27185018  0.03769846  0.23692403     0.02730
C15         C  0.26039371  0.99722701  0.25504461    -0.11360
H16         H  0.22028478  0.42479079  0.17448044     0.08320
H17         H  0.27472006  0.06998059  0.18166615     0.05850
H18         H  0.26651094  0.99682127  0.28714390     0.05700
O19         O  0.39826255  0.23914960  0.02324638    -0.82190
C20         C  0.29012219  0.07841081  0.26351859     0.97160
O21         O  0.32218169  0.08616284  0.28700909    -0.71310
O22         O  0.39796818  0.15986549  0.27107528    -0.74900
Al23       Al  0.36313282  0.13709155  0.31966289     1.48980
C24         C  0.41895245  0.20013920  0.26000322     0.92410
O25         O  0.33262677  0.22382778  0.25807163    -0.81120
O26         O  0.27174664  0.16955506  0.02863692    -0.74680
Al27       Al  0.36327857  0.22686944  0.30801754     1.90020
O28         O  0.26575300  0.17571076  0.28007481    -0.73750
O29         O  0.26567836  0.09017787  0.01429659    -0.73600
O30         O  0.27161637  0.10234310  0.26568700    -0.79260
O31         O  0.33256717  0.10945384  0.03633003    -0.77460
O32         O  0.33385052  0.16722543  0.31383732    -1.13600
O33         O  0.40980516  0.18185853  0.01939645    -0.72790
C34         C  0.41911351  0.21983319  0.03425169     0.97920
C35         C  0.29054585  0.20664686  0.25653135     0.94320
Al36       Al  0.27397347  0.13710902  0.31384143     1.55560
O37         O  0.40985369  0.22891662  0.27482795    -0.77410
C38         C  0.29049459  0.08423098  0.03785641     0.98490
C39         C  0.29032275  0.21212082  0.03086126     0.93370
O40         O  0.32243427  0.23666105  0.00743174    -0.82730
C41         C  0.23827880  0.28152240  0.06128246     0.02730
C42         C  0.26020992  0.26304314  0.03925642    -0.13420
C43         C  0.27197813  0.23436639  0.05742380     0.00230
C44         C  0.26632581  0.22814578  0.09961259    -0.11940
C45         C  0.25051421  0.25225540  0.12412754     0.02730
C46         C  0.23476155  0.27769734  0.10375167    -0.11360
H47         H  0.26632925  0.26962602  0.34049428     0.08320
H48         H  0.27504744  0.20510162  0.11268642     0.05850
H49         H  0.21956308  0.29458556  0.11973669     0.05700
C50         C  0.22140750  0.25958518  0.23654480     0.02730
C51         C  0.24090415  0.23783400  0.25483622    -0.13420
C52         C  0.26904437  0.22651370  0.23299102     0.00230
C53         C  0.27424812  0.23329755  0.19077949    -0.11940
C54         C  0.24933733  0.24959733  0.17007601     0.02730
C55         C  0.22403360  0.26410081  0.19422684    -0.11360
H56         H  0.23506763  0.23079234  0.28688537     0.08320
H57         H  0.29687285  0.22493561  0.17474822     0.05850
H58         H  0.20627001  0.27911263  0.18126991     0.05700
O59         O  0.10660717  0.27728061  0.03437930    -0.82190
C60         C  0.21463460  0.41560977  0.25675367     0.97160
O61         O  0.17964620  0.40893457  0.27545973    -0.71310
O62         O  0.10698809  0.32875855  0.25969579    -0.74900
Al63       Al  0.13668500  0.36226020  0.30880944     1.48980
C64         C  0.08112835  0.28651442  0.25990530     0.92410
O65         O  0.16227300  0.26371613  0.27038626    -0.81120
O66         O  0.23155834  0.33964384  0.03099953    -0.74680
Al67       Al  0.13634456  0.27353482  0.31864584     1.90120
O68         O  0.23188658  0.31797201  0.28225507    -0.73750
O69         O  0.23218470  0.41361050  0.01198046    -0.73600
O70         O  0.23179562  0.39158095  0.26318558    -0.79260
O71         O  0.16265564  0.39803693  0.02380385    -0.77460
O72         O  0.16685442  0.33310106  0.31374444    -1.13600
O73         O  0.08700579  0.32304940  0.00850594    -0.72790
C74         C  0.08106236  0.29386080  0.03410735     0.97920
C75         C  0.20387816  0.28210352  0.26343256     0.94320
Al76       Al  0.22671780  0.36311610  0.31377030     1.55560
O77         O  0.08678136  0.26306033  0.28546409    -0.77410
C78         C  0.20426590  0.42141419  0.03079397     0.98490
C79         C  0.21420490  0.29833302  0.03748013     0.93370
O80         O  0.17913465  0.26985617  0.01878956    -0.82730
C81         C  0.45940929  0.24372539  0.05993534     0.02730
C82         C  0.50030162  0.26515819  0.03965785    -0.13420
C83         C  0.04015375  0.27576804  0.05937527     0.00230
C84         C  0.03946145  0.26818211  0.10128150    -0.11940
C85         C  0.49892758  0.25166490  0.12414857     0.02730
C86         C  0.45853061  0.23793767  0.10214987    -0.11360
H87         H  0.50061218  0.27082165  0.34064514     0.08320
H88         H  0.07067072  0.27560428  0.11540269     0.05850
H89         H  0.42606812  0.22229653  0.11671350     0.05700
C90         C  0.04014650  0.26395810  0.23469089     0.02730
C91         C  0.50007908  0.23521865  0.25448909    -0.13420
C92         C  0.45917953  0.21644933  0.23428933     0.00230
C93         C  0.45836462  0.22145949  0.19208333    -0.11940
C94         C  0.49890208  0.24755339  0.17000711     0.02730
C95         C  0.03957742  0.27096717  0.19279658    -0.11360
H96         H  0.50031783  0.22976335  0.28682000     0.08320
H97         H  0.42586477  0.20508966  0.17757421     0.05850
H98         H  0.07098448  0.29441654  0.17862962     0.05700
C99         C  0.22186868  0.46159574  0.39103172     0.02730
C100        C  0.22448994  0.45972163  0.43335442    -0.13420
C101        C  0.24957793  0.99972141  0.45755336     0.00230
C102        C  0.27428949  0.04114656  0.43690089    -0.11940
C103        C  0.26908938  0.04268715  0.39468458     0.02730
C104        C  0.24115268  0.50299104  0.37278206    -0.11360
H105        H  0.20684247  0.42681195  0.44628829     0.08320
H106        H  0.29676464  0.07232104  0.45297955     0.05850
H107        H  0.23528275  0.50415253  0.67407342     0.05700
C108        C  0.23876536  0.45666725  0.56630872     0.02730
C109        C  0.23527167  0.45695935  0.52383657    -0.13420
C110        C  0.25072681  0.99823387  0.50350387     0.00230
C111        C  0.26620793  0.03820688  0.52805838    -0.11940
C112        C  0.27185023  0.03769842  0.57025735     0.02730
C113        C  0.26039378  0.99722697  0.58837793    -0.11360
H114        H  0.22028476  0.42479076  0.50781379     0.08320
H115        H  0.27472009  0.06998056  0.51499948     0.05850
H116        H  0.26651102  0.99682123  0.62047721     0.05700
O117        O  0.39826257  0.23914966  0.35657967    -0.82190
C118        C  0.29012224  0.07841077  0.59685191     0.97160
O119        O  0.32218175  0.08616281  0.62034241    -0.71310
O120        O  0.39796820  0.15986548  0.60440859    -0.74900
Al121      Al  0.36313287  0.13709153  0.65299620     1.48980
C122        C  0.41895248  0.20013920  0.59333655     0.92410
O123        O  0.33262680  0.22382777  0.59140498    -0.81120
O124        O  0.27174667  0.16955511  0.36197026    -0.74680
Al125      Al  0.36327859  0.22686941  0.64135089     1.90020
O126        O  0.26575302  0.17571072  0.61340812    -0.73750
O127        O  0.26567835  0.09017790  0.34762994    -0.73600
O128        O  0.27161642  0.10234306  0.59902032    -0.79260
O129        O  0.33256715  0.10945387  0.36966339    -0.77460
O130        O  0.33385055  0.16722540  0.64717065    -1.13600
O131        O  0.40980515  0.18185856  0.35272983    -0.72790
C132        C  0.41911351  0.21983324  0.36758503     0.97920
C133        C  0.29054588  0.20664683  0.58986467     0.94320
Al134      Al  0.27397350  0.13710897  0.64717475     1.55560
O135        O  0.40985373  0.22891661  0.60816131    -0.77410
C136        C  0.29049458  0.08423100  0.37118975     0.98490
C137        C  0.29032278  0.21212087  0.36419458     0.93370
O138        O  0.32243428  0.23666109  0.34076503    -0.82730
C139        C  0.23827885  0.28152247  0.39461581     0.02730
C140        C  0.26020996  0.26304320  0.37258976    -0.13420
C141        C  0.27197818  0.23436645  0.39075712     0.00230
C142        C  0.26632589  0.22814585  0.43294592    -0.11940
C143        C  0.25051429  0.25225547  0.45746088     0.02730
C144        C  0.23476163  0.27769741  0.43708502    -0.11360
H145        H  0.26632924  0.26962594  0.67382760     0.08320
H146        H  0.27504753  0.20510169  0.44601974     0.05850
H147        H  0.21956316  0.29458563  0.45307005     0.05700
C148        C  0.22140754  0.25958517  0.56987814     0.02730
C149        C  0.24090417  0.23783396  0.58816955    -0.13420
C150        C  0.26904441  0.22651367  0.56632435     0.00230
C151        C  0.27424818  0.23329756  0.52411282    -0.11940
C152        C  0.24933741  0.24959737  0.50340935     0.02730
C153        C  0.22403368  0.26410084  0.52756018    -0.11360
H154        H  0.23506763  0.23079227  0.62021869     0.08320
H155        H  0.29687293  0.22493564  0.50808155     0.05850
H156        H  0.20627011  0.27911269  0.51460326     0.05700
O157        O  0.10660720  0.27728071  0.36771266    -0.82190
C158        C  0.21463468  0.41560977  0.59008702     0.97160
O159        O  0.17964630  0.40893458  0.60879309    -0.71310
O160        O  0.10698817  0.32875860  0.59302913    -0.74900
Al161      Al  0.13668507  0.36226020  0.64214280     1.48980
C162        C  0.08112842  0.28651446  0.59323861     0.92410
O163        O  0.16227305  0.26371614  0.60371956    -0.81120
O164        O  0.23155839  0.33964388  0.36433286    -0.74680
Al165      Al  0.13634460  0.27353481  0.65197914     1.90120
O166        O  0.23188663  0.31797198  0.61558843    -0.73750
O167        O  0.23218472  0.41361052  0.34531379    -0.73600
O168        O  0.23179569  0.39158092  0.59651893    -0.79260
O169        O  0.16265566  0.39803698  0.35713710    -0.77460
O170        O  0.16685447  0.33310105  0.64707777    -1.13600
O171        O  0.08700581  0.32304946  0.34183921    -0.72790
C172        C  0.08106238  0.29386090  0.36744067     0.97920
C173        C  0.20387820  0.28210351  0.59676590     0.94320
Al174      Al  0.22671785  0.36311608  0.64710365     1.55560
O175        O  0.08678141  0.26306035  0.61879739    -0.77410
C176        C  0.20426591  0.42141422  0.36412728     0.98490
C177        C  0.21420493  0.29833308  0.37081349     0.93370
O178        O  0.17913466  0.26985622  0.35212295    -0.82730
C179        C  0.45940928  0.24372546  0.39326868     0.02730
C180        C  0.50030161  0.26515828  0.37299119    -0.13420
C181        C  0.04015378  0.27576819  0.39270859     0.00230
C182        C  0.03946150  0.26818230  0.43461482    -0.11940
C183        C  0.49892759  0.25166499  0.45748191     0.02730
C184        C  0.45853061  0.23793774  0.43548321    -0.11360
H185        H  0.50061221  0.27082159  0.67397846     0.08320
H186        H  0.07067077  0.27560446  0.44873601     0.05850
H187        H  0.42606812  0.22229657  0.45004684     0.05700
C188        C  0.04014657  0.26395818  0.56802421     0.02730
C189        C  0.50007911  0.23521864  0.58782241    -0.13420
C190        C  0.45917956  0.21644935  0.56762266     0.00230
C191        C  0.45836465  0.22145955  0.52541667    -0.11940
C192        C  0.49890210  0.24755346  0.50334045     0.02730
C193        C  0.03957749  0.27096733  0.52612990    -0.11360
H194        H  0.50031786  0.22976330  0.62015331     0.08320
H195        H  0.42586479  0.20508975  0.51090755     0.05850
H196        H  0.07098455  0.29441672  0.51196296     0.05700
C197        C  0.22186875  0.46159573  0.72436506     0.02730
C198        C  0.22448991  0.45972162  0.76668777    -0.13420
C199        C  0.24957797  0.99972140  0.79088667     0.00230
C200        C  0.27428954  0.04114654  0.77023420    -0.11940
C201        C  0.26908945  0.04268712  0.72801789     0.02730
C202        C  0.24115280  0.50299103  0.70611538    -0.11360
H203        H  0.20684239  0.42681195  0.77962164     0.08320
H204        H  0.29676468  0.07232102  0.78631286     0.05850
H205        H  0.23528264  0.50415254  0.00740676     0.05700
C206        C  0.23876521  0.45666725  0.89964208     0.02730
C207        C  0.23527153  0.45695935  0.85716993    -0.13420
C208        C  0.25072682  0.99823387  0.83683719     0.00230
C209        C  0.26620792  0.03820689  0.86139169    -0.11940
C210        C  0.27185019  0.03769844  0.90359067     0.02730
C211        C  0.26039373  0.99722700  0.92171126    -0.11360
H212        H  0.22028462  0.42479076  0.84114715     0.08320
H213        H  0.27472010  0.06998057  0.84833278     0.05850
H214        H  0.26651094  0.99682126  0.95381055     0.05700
O215        O  0.39826257  0.23914961  0.68991303    -0.82190
C216        C  0.29012220  0.07841079  0.93018523     0.97160
O217        O  0.32218170  0.08616282  0.95367574    -0.71310
O218        O  0.39796816  0.15986548  0.93774191    -0.74900
Al219      Al  0.36313283  0.13709153  0.98632952     1.48980
C220        C  0.41895245  0.20013920  0.92666988     0.92410
O221        O  0.33262679  0.22382780  0.92473833    -0.81120
O222        O  0.27174667  0.16955504  0.69530358    -0.74680
Al223      Al  0.36327857  0.22686942  0.97468424     1.90020
O224        O  0.26575300  0.17571074  0.94674147    -0.73750
O225        O  0.26567840  0.09017785  0.68096326    -0.73600
O226        O  0.27161638  0.10234308  0.93235364    -0.79260
O227        O  0.33256721  0.10945384  0.70299671    -0.77460
O228        O  0.33385052  0.16722541  0.98050398    -1.13600
O229        O  0.40980519  0.18185854  0.68606313    -0.72790
C230        C  0.41911353  0.21983320  0.70091836     0.97920
C231        C  0.29054587  0.20664687  0.92319803     0.94320
Al232      Al  0.27397347  0.13710899  0.98050809     1.55560
O233        O  0.40985371  0.22891662  0.94149465    -0.77410
C234        C  0.29049463  0.08423097  0.70452307     0.98490
C235        C  0.29032277  0.21212080  0.69752792     0.93370
O236        O  0.32243428  0.23666104  0.67409838    -0.82730
C237        C  0.23827885  0.28152240  0.72794913     0.02730
C238        C  0.26020994  0.26304312  0.70592309    -0.13420
C239        C  0.27197815  0.23436637  0.72409046     0.00230
C240        C  0.26632586  0.22814578  0.76627925    -0.11940
C241        C  0.25051426  0.25225541  0.79079421     0.02730
C242        C  0.23476162  0.27769736  0.77041834    -0.11360
H243        H  0.26632924  0.26962598  0.00716094     0.08320
H244        H  0.27504749  0.20510162  0.77935309     0.05850
H245        H  0.21956317  0.29458561  0.78640336     0.05700
C246        C  0.22140751  0.25958519  0.90321145     0.02730
C247        C  0.24090417  0.23783400  0.92150289    -0.13420
C248        C  0.26904439  0.22651370  0.89965770     0.00230
C249        C  0.27424815  0.23329755  0.85744617    -0.11940
C250        C  0.24933737  0.24959733  0.83674268     0.02730
C251        C  0.22403363  0.26410080  0.86089350    -0.11360
H252        H  0.23506763  0.23079233  0.95355203     0.08320
H253        H  0.29687290  0.22493562  0.84141490     0.05850
H254        H  0.20627004  0.27911262  0.84793655     0.05700
O255        O  0.10660723  0.27728067  0.70104598    -0.82190
C256        C  0.21463456  0.41560977  0.92342037     0.97160
O257        O  0.17964618  0.40893457  0.94212647    -0.71310
O258        O  0.10698806  0.32875857  0.92636250    -0.74900
Al259      Al  0.13668497  0.36226017  0.97547617     1.48980
C260        C  0.08112833  0.28651444  0.92657196     0.92410
O261        O  0.16227300  0.26371614  0.93705286    -0.81120
O262        O  0.23155840  0.33964384  0.69766621    -0.74680
Al263      Al  0.13634455  0.27353478  0.98531246     1.90120
O264        O  0.23188657  0.31797199  0.94892174    -0.73750
O265        O  0.23218478  0.41361051  0.67864713    -0.73600
O266        O  0.23179558  0.39158092  0.92985226    -0.79260
O267        O  0.16265573  0.39803696  0.69047047    -0.77460
O268        O  0.16685439  0.33310103  0.98041111    -1.13600
O269        O  0.08700587  0.32304946  0.67517256    -0.72790
C270        C  0.08106242  0.29386088  0.70077400     0.97920
C271        C  0.20387816  0.28210352  0.93009920     0.94320
Al272      Al  0.22671777  0.36311608  0.98043698     1.55560
O273        O  0.08678135  0.26306031  0.95213072    -0.77410
C274        C  0.20426598  0.42141420  0.69746063     0.98490
C275        C  0.21420495  0.29833303  0.70414681     0.93370
O276        O  0.17913468  0.26985619  0.68545625    -0.82730
C277        C  0.45940930  0.24372543  0.72660200     0.02730
C278        C  0.50030164  0.26515823  0.70632452    -0.13420
C279        C  0.04015381  0.27576816  0.72604192     0.00230
C280        C  0.03946150  0.26818225  0.76794815    -0.11940
C281        C  0.49892760  0.25166495  0.79081524     0.02730
C282        C  0.45853062  0.23793771  0.76881654    -0.11360
H283        H  0.50061220  0.27082157  0.00731180     0.08320
H284        H  0.07067076  0.27560441  0.78206935     0.05850
H285        H  0.42606813  0.22229656  0.78338017     0.05700
C286        C  0.04014650  0.26395815  0.90135754     0.02730
C287        C  0.50007908  0.23521863  0.92115575    -0.13420
C288        C  0.45917953  0.21644935  0.90095600     0.00230
C289        C  0.45836463  0.22145953  0.85875000    -0.11940
C290        C  0.49890210  0.24755343  0.83667378     0.02730
C291        C  0.03957744  0.27096727  0.85946324    -0.11360
H292        H  0.50031784  0.22976329  0.95348665     0.08320
H293        H  0.42586478  0.20508974  0.84424088     0.05850
H294        H  0.07098450  0.29441667  0.84529630     0.05700
C295        C  0.22186886  0.96159575  0.05769833     0.02730
C296        C  0.22448996  0.95972165  0.10002105    -0.13420
C297        C  0.24957791  0.49972141  0.12422006     0.00230
C298        C  0.27428942  0.54114656  0.10356757    -0.11940
C299        C  0.26908924  0.54268713  0.06135127     0.02730
C300        C  0.24115294  0.00299105  0.03944867    -0.11360
H301        H  0.20684239  0.92681198  0.11295492     0.08320
H302        H  0.29676461  0.57232103  0.11964621     0.05850
H303        H  0.23528278  0.00415259  0.34074007     0.05700
C304        C  0.23876508  0.95666727  0.23297536     0.02730
C305        C  0.23527146  0.95695937  0.19050321    -0.13420
C306        C  0.25072688  0.49823388  0.17017057     0.00230
C307        C  0.26620801  0.53820690  0.19472508    -0.11940
C308        C  0.27185031  0.53769845  0.23692406     0.02730
C309        C  0.26039385  0.49722701  0.25504465    -0.11360
H310        H  0.22028459  0.92479079  0.17448043     0.08320
H311        H  0.27472015  0.56998057  0.18166618     0.05850
H312        H  0.26651099  0.49682127  0.28714397     0.05700
O313        O  0.39826270  0.73914977  0.02324620    -0.82190
C314        C  0.29012226  0.57841079  0.26351861     0.97160
O315        O  0.32218172  0.58616282  0.28700919    -0.71310
O316        O  0.39796830  0.65986543  0.27107550    -0.74900
Al317      Al  0.36313278  0.63709152  0.31966303     1.48980
C318        C  0.41895246  0.70013908  0.26000326     0.92410
O319        O  0.33262674  0.72382772  0.25807153    -0.81120
O320        O  0.27174666  0.66955512  0.02863683    -0.74680
Al321      Al  0.36327857  0.72686941  0.30801744     1.90020
O322        O  0.26575297  0.67571072  0.28007470    -0.73750
O323        O  0.26567831  0.59017787  0.01429655    -0.73600
O324        O  0.27161645  0.60234308  0.26568694    -0.79260
O325        O  0.33256705  0.60945386  0.03633014    -0.77460
O326        O  0.33385051  0.66722541  0.31383730    -1.13600
O327        O  0.40980507  0.68185853  0.01939667    -0.72790
C328        C  0.41911352  0.71983329  0.03425173     0.97920
C329        C  0.29054582  0.70664682  0.25653124     0.94320
Al330      Al  0.27397345  0.63710900  0.31384134     1.55560
O331        O  0.40985361  0.72891650  0.27482781    -0.77410
C332        C  0.29049448  0.58423097  0.03785643     0.98490
C333        C  0.29032281  0.71212089  0.03086115     0.93370
O334        O  0.32243434  0.73666110  0.00743162    -0.82730
C335        C  0.23827900  0.78152258  0.06128236     0.02730
C336        C  0.26021009  0.76304328  0.03925632    -0.13420
C337        C  0.27197824  0.73436649  0.05742369     0.00230
C338        C  0.26632590  0.72814587  0.09961248    -0.11940
C339        C  0.25051431  0.75225550  0.12412743     0.02730
C340        C  0.23476172  0.77769749  0.10375157    -0.11360
H341        H  0.26632935  0.76962610  0.34049416     0.08320
H342        H  0.27504748  0.70510166  0.11268630     0.05850
H343        H  0.21956326  0.79458573  0.11973659     0.05700
C344        C  0.22140744  0.75958514  0.23654468     0.02730
C345        C  0.24090411  0.73783396  0.25483611    -0.13420
C346        C  0.26904434  0.72651366  0.23299092     0.00230
C347        C  0.27424813  0.73329755  0.19077939    -0.11940
C348        C  0.24933737  0.74959736  0.17007590     0.02730
C349        C  0.22403360  0.76410080  0.19422672    -0.11360
H350        H  0.23506759  0.73079232  0.28688526     0.08320
H351        H  0.29687288  0.72493564  0.17474812     0.05850
H352        H  0.20627002  0.77911264  0.18126977     0.05700
O353        O  0.10660726  0.77728065  0.03437934    -0.82190
C354        C  0.21463444  0.91560978  0.25675363     0.97160
O355        O  0.17964614  0.90893463  0.27545985    -0.71310
O356        O  0.10698802  0.82875861  0.25969590    -0.74900
Al357      Al  0.13668498  0.86226020  0.30880955     1.48980
C358        C  0.08112833  0.78651447  0.25990536     0.92410
O359        O  0.16227297  0.76371609  0.27038621    -0.81120
O360        O  0.23155857  0.83964396  0.03099931    -0.74680
Al361      Al  0.13634458  0.77353482  0.31864582     1.90120
O362        O  0.23188654  0.81797203  0.28225488    -0.73750
O363        O  0.23218481  0.91361058  0.01198025    -0.73600
O364        O  0.23179541  0.89158087  0.26318539    -0.79260
O365        O  0.16265576  0.89803689  0.02380391    -0.77460
O366        O  0.16685441  0.83310105  0.31374441    -1.13600
O367        O  0.08700585  0.82304942  0.00850600    -0.72790
C368        C  0.08106243  0.79386083  0.03410740     0.97920
C369        C  0.20387811  0.78210349  0.26343244     0.94320
Al370      Al  0.22671779  0.86311612  0.31377012     1.55560
O371        O  0.08678137  0.76306034  0.28546409    -0.77410
C372        C  0.20426604  0.92141421  0.03079391     0.98490
C373        C  0.21420508  0.79833317  0.03748002     0.93370
O374        O  0.17913476  0.76985628  0.01878956    -0.82730
C375        C  0.45940928  0.74372551  0.05993539     0.02730
C376        C  0.50030163  0.76515830  0.03965790    -0.13420
C377        C  0.04015381  0.77576806  0.05937532     0.00230
C378        C  0.03946150  0.76818217  0.10128156    -0.11940
C379        C  0.49892757  0.75166495  0.12414862     0.02730
C380        C  0.45853060  0.73793775  0.10214992    -0.11360
H381        H  0.50061215  0.77082163  0.34064518     0.08320
H382        H  0.07067076  0.77560433  0.11540277     0.05850
H383        H  0.42606811  0.72229659  0.11671355     0.05700
C384        C  0.04014649  0.76395816  0.23469095     0.02730
C385        C  0.50007907  0.73521850  0.25448912    -0.13420
C386        C  0.45917952  0.71644918  0.23428936     0.00230
C387        C  0.45836462  0.72145941  0.19208337    -0.11940
C388        C  0.49890207  0.74755337  0.17000715     0.02730
C389        C  0.03957742  0.77096727  0.19279663    -0.11360
H390        H  0.50031783  0.72976319  0.28682002     0.08320
H391        H  0.42586477  0.70508961  0.17757424     0.05850
H392        H  0.07098448  0.79441666  0.17862969     0.05700
C393        C  0.22186883  0.96159576  0.39103167     0.02730
C394        C  0.22448997  0.95972165  0.43335437    -0.13420
C395        C  0.24957792  0.49972140  0.45755340     0.00230
C396        C  0.27428939  0.54114655  0.43690091    -0.11940
C397        C  0.26908918  0.54268713  0.39468462     0.02730
C398        C  0.24115290  0.00299107  0.37278200    -0.11360
H399        H  0.20684240  0.92681197  0.44628824     0.08320
H400        H  0.29676458  0.57232103  0.45297955     0.05850
H401        H  0.23528287  0.00415255  0.67407338     0.05700
C402        C  0.23876514  0.95666723  0.56630867     0.02730
C403        C  0.23527151  0.95695934  0.52383652    -0.13420
C404        C  0.25072693  0.49823386  0.50350391     0.00230
C405        C  0.26620809  0.53820688  0.52805842    -0.11940
C406        C  0.27185043  0.53769843  0.57025740     0.02730
C407        C  0.26039400  0.49722699  0.58837798    -0.11360
H408        H  0.22028464  0.92479076  0.50781373     0.08320
H409        H  0.27472022  0.56998056  0.51499954     0.05850
H410        H  0.26651117  0.49682126  0.62047729     0.05700
O411        O  0.39826266  0.73914975  0.35657952    -0.82190
C412        C  0.29012236  0.57841077  0.59685196     0.97160
O413        O  0.32218181  0.58616281  0.62034255    -0.71310
O414        O  0.39796838  0.65986543  0.60440889    -0.74900
Al415      Al  0.36313285  0.63709153  0.65299640     1.48980
C416        C  0.41895249  0.70013906  0.59333659     0.92410
O417        O  0.33262672  0.72382767  0.59140483    -0.81120
O418        O  0.27174661  0.66955510  0.36197013    -0.74680
Al419      Al  0.36327858  0.72686940  0.64135074     1.90020
O420        O  0.26575298  0.67571066  0.61340803    -0.73750
O421        O  0.26567824  0.59017785  0.34762987    -0.73600
O422        O  0.27161652  0.60234305  0.59902028    -0.79260
O423        O  0.33256698  0.60945387  0.36966350    -0.77460
O424        O  0.33385056  0.66722540  0.64717064    -1.13600
O425        O  0.40980501  0.68185850  0.35273003    -0.72790
C426        C  0.41911347  0.71983326  0.36758507     0.97920
C427        C  0.29054580  0.70664675  0.58986456     0.94320
Al428      Al  0.27397349  0.63710896  0.64717468     1.55560
O429        O  0.40985361  0.72891648  0.60816110    -0.77410
C430        C  0.29049441  0.58423097  0.37118977     0.98490
C431        C  0.29032277  0.71212087  0.36419446     0.93370
O432        O  0.32243431  0.73666109  0.34076495    -0.82730
C433        C  0.23827896  0.78152256  0.39461570     0.02730
C434        C  0.26021005  0.76304327  0.37258965    -0.13420
C435        C  0.27197820  0.73436647  0.39075701     0.00230
C436        C  0.26632584  0.72814581  0.43294579    -0.11940
C437        C  0.25051425  0.75225543  0.45746076     0.02730
C438        C  0.23476166  0.77769744  0.43708491    -0.11360
H439        H  0.26632933  0.76962601  0.67382747     0.08320
H440        H  0.27504741  0.70510160  0.44601960     0.05850
H441        H  0.21956320  0.79458567  0.45306994     0.05700
C442        C  0.22140739  0.75958503  0.56987800     0.02730
C443        C  0.24090406  0.73783386  0.58816943    -0.13420
C444        C  0.26904430  0.72651357  0.56632423     0.00230
C445        C  0.27424807  0.73329746  0.52411270    -0.11940
C446        C  0.24933730  0.74959726  0.50340922     0.02730
C447        C  0.22403353  0.76410069  0.52756005    -0.11360
H448        H  0.23506757  0.73079222  0.62021858     0.08320
H449        H  0.29687283  0.72493555  0.50808143     0.05850
H450        H  0.20626994  0.77911251  0.51460311     0.05700
O451        O  0.10660722  0.77728066  0.36771268    -0.82190
C452        C  0.21463448  0.91560973  0.59008694     0.97160
O453        O  0.17964620  0.90893460  0.60879316    -0.71310
O454        O  0.10698804  0.82875859  0.59302922    -0.74900
Al455      Al  0.13668502  0.86226018  0.64214287     1.48980
C456        C  0.08112833  0.78651445  0.59323868     0.92410
O457        O  0.16227294  0.76371602  0.60371953    -0.81120
O458        O  0.23155854  0.83964396  0.36433265    -0.74680
Al459      Al  0.13634457  0.77353478  0.65197914     1.90120
O460        O  0.23188653  0.81797194  0.61558819    -0.73750
O461        O  0.23218477  0.91361058  0.34531360    -0.73600
O462        O  0.23179544  0.89158080  0.59651869    -0.79260
O463        O  0.16265572  0.89803691  0.35713723    -0.77460
O464        O  0.16685443  0.83310101  0.64707772    -1.13600
O465        O  0.08700582  0.82304943  0.34183933    -0.72790
C466        C  0.08106239  0.79386084  0.36744074     0.97920
C467        C  0.20387808  0.78210340  0.59676576     0.94320
Al468      Al  0.22671781  0.86311605  0.64710343     1.55560
O469        O  0.08678137  0.76306032  0.61879742    -0.77410
C470        C  0.20426601  0.92141422  0.36412724     0.98490
C471        C  0.21420505  0.79833316  0.37081337     0.93370
O472        O  0.17913472  0.76985628  0.35212291    -0.82730
C473        C  0.45940924  0.74372549  0.39326873     0.02730
C474        C  0.50030158  0.76515827  0.37299123    -0.13420
C475        C  0.04015377  0.77576807  0.39270865     0.00230
C476        C  0.03946147  0.76818218  0.43461489    -0.11940
C477        C  0.49892755  0.75166491  0.45748195     0.02730
C478        C  0.45853058  0.73793772  0.43548326    -0.11360
H479        H  0.50061222  0.77082167  0.67397848     0.08320
H480        H  0.07067073  0.77560434  0.44873609     0.05850
H481        H  0.42606809  0.72229657  0.45004691     0.05700
C482        C  0.04014649  0.76395815  0.56802427     0.02730
C483        C  0.50007911  0.73521849  0.58782244    -0.13420
C484        C  0.45917955  0.71644917  0.56762269     0.00230
C485        C  0.45836463  0.72145938  0.52541670    -0.11940
C486        C  0.49890207  0.74755334  0.50334048     0.02730
C487        C  0.03957741  0.77096727  0.52612997    -0.11360
H488        H  0.50031787  0.72976319  0.62015335     0.08320
H489        H  0.42586478  0.70508958  0.51090758     0.05850
H490        H  0.07098447  0.79441668  0.51196302     0.05700
C491        C  0.22186891  0.96159573  0.72436498     0.02730
C492        C  0.22449002  0.95972162  0.76668769    -0.13420
C493        C  0.24957786  0.49972140  0.79088675     0.00230
C494        C  0.27428937  0.54114655  0.77023427    -0.11940
C495        C  0.26908924  0.54268712  0.72801796     0.02730
C496        C  0.24115299  0.00299103  0.70611531    -0.11360
H497        H  0.20684245  0.92681195  0.77962156     0.08320
H498        H  0.29676451  0.57232103  0.78631292     0.05850
H499        H  0.23528284  0.00415257  0.00740673     0.05700
C500        C  0.23876510  0.95666725  0.89964201     0.02730
C501        C  0.23527151  0.95695935  0.85716985    -0.13420
C502        C  0.25072681  0.49823386  0.83683727     0.00230
C503        C  0.26620796  0.53820688  0.86139177    -0.11940
C504        C  0.27185031  0.53769844  0.90359074     0.02730
C505        C  0.26039386  0.49722700  0.92171133    -0.11360
H506        H  0.22028466  0.92479077  0.84114707     0.08320
H507        H  0.27472010  0.56998056  0.84833288     0.05850
H508        H  0.26651106  0.49682127  0.95381064     0.05700
O509        O  0.39826272  0.73914980  0.68991281    -0.82190
C510        C  0.29012229  0.57841080  0.93018528     0.97160
O511        O  0.32218177  0.58616284  0.95367583    -0.71310
O512        O  0.39796834  0.65986548  0.93774213    -0.74900
Al513      Al  0.36313284  0.63709155  0.98632967     1.48980
C514        C  0.41895250  0.70013914  0.92666991     0.92410
O515        O  0.33262677  0.72382774  0.92473820    -0.81120
O516        O  0.27174663  0.66955506  0.69530346    -0.74680
Al517      Al  0.36327860  0.72686943  0.97468411     1.90020
O518        O  0.26575301  0.67571073  0.94674138    -0.73750
O519        O  0.26567830  0.59017782  0.68096320    -0.73600
O520        O  0.27161647  0.60234309  0.93235363    -0.79260
O521        O  0.33256703  0.60945388  0.70299687    -0.77460
O522        O  0.33385055  0.66722543  0.98050397    -1.13600
O523        O  0.40980506  0.68185854  0.68606341    -0.72790
C524        C  0.41911353  0.71983332  0.70091840     0.97920
C525        C  0.29054585  0.70664683  0.92319792     0.94320
Al526      Al  0.27397349  0.63710901  0.98050803     1.55560
O527        O  0.40985365  0.72891655  0.94149449    -0.77410
C528        C  0.29049447  0.58423097  0.70452312     0.98490
C529        C  0.29032279  0.71212083  0.69752779     0.93370
O530        O  0.32243432  0.73666106  0.67409827    -0.82730
C531        C  0.23827895  0.78152250  0.72794901     0.02730
C532        C  0.26021004  0.76304321  0.70592297    -0.13420
C533        C  0.27197821  0.73436643  0.72409034     0.00230
C534        C  0.26632588  0.72814581  0.76627912    -0.11940
C535        C  0.25051428  0.75225543  0.79079408     0.02730
C536        C  0.23476167  0.77769741  0.77041822    -0.11360
H537        H  0.26632939  0.76962610  0.00716083     0.08320
H538        H  0.27504748  0.70510161  0.77935295     0.05850
H539        H  0.21956321  0.79458564  0.78640324     0.05700
C540        C  0.22140747  0.75958513  0.90321134     0.02730
C541        C  0.24090414  0.73783396  0.92150277    -0.13420
C542        C  0.26904436  0.72651365  0.89965758     0.00230
C543        C  0.27424812  0.73329751  0.85744604    -0.11940
C544        C  0.24933735  0.74959730  0.83674255     0.02730
C545        C  0.22403359  0.76410076  0.86089337    -0.11360
H546        H  0.23506764  0.73079234  0.95355193     0.08320
H547        H  0.29687286  0.72493557  0.84141478     0.05850
H548        H  0.20627000  0.77911258  0.84793643     0.05700
O549        O  0.10660724  0.77728065  0.70104601    -0.82190
C550        C  0.21463446  0.91560976  0.92342029     0.97160
O551        O  0.17964618  0.90893462  0.94212651    -0.71310
O552        O  0.10698804  0.82875861  0.92636257    -0.74900
Al553      Al  0.13668502  0.86226019  0.97547622     1.48980
C554        C  0.08112835  0.78651446  0.92657202     0.92410
O555        O  0.16227300  0.76371609  0.93705286    -0.81120
O556        O  0.23155855  0.83964390  0.69766596    -0.74680
Al557      Al  0.13634461  0.77353481  0.98531247     1.90120
O558        O  0.23188657  0.81797202  0.94892154    -0.73750
O559        O  0.23218482  0.91361053  0.67864691    -0.73600
O560        O  0.23179543  0.89158085  0.92985203    -0.79260
O561        O  0.16265578  0.89803689  0.69047055    -0.77460
O562        O  0.16685444  0.83310105  0.98041107    -1.13600
O563        O  0.08700585  0.82304943  0.67517265    -0.72790
C564        C  0.08106242  0.79386084  0.70077406     0.97920
C565        C  0.20387814  0.78210349  0.93009909     0.94320
Al566      Al  0.22671782  0.86311611  0.98043677     1.55560
O567        O  0.08678140  0.76306034  0.95213075    -0.77410
C568        C  0.20426607  0.92141419  0.69746056     0.98490
C569        C  0.21420504  0.79833310  0.70414668     0.93370
O570        O  0.17913471  0.76985623  0.68545622    -0.82730
C571        C  0.45940931  0.74372559  0.72660204     0.02730
C572        C  0.50030165  0.76515836  0.70632455    -0.13420
C573        C  0.04015380  0.77576808  0.72604198     0.00230
C574        C  0.03946150  0.76818219  0.76794822    -0.11940
C575        C  0.49892762  0.75166509  0.79081528     0.02730
C576        C  0.45853064  0.73793787  0.76881659    -0.11360
H577        H  0.50061221  0.77082166  0.00731185     0.08320
H578        H  0.07067077  0.77560436  0.78206943     0.05850
H579        H  0.42606815  0.72229672  0.78338022     0.05700
C580        C  0.04014651  0.76395815  0.90135761     0.02730
C581        C  0.50007912  0.73521858  0.92115577    -0.13420
C582        C  0.45917957  0.71644927  0.90095601     0.00230
C583        C  0.45836467  0.72145953  0.85875003    -0.11940
C584        C  0.49890212  0.74755351  0.83667382     0.02730
C585        C  0.03957744  0.77096727  0.85946330    -0.11360
H586        H  0.50031787  0.72976324  0.95348667     0.08320
H587        H  0.42586482  0.70508974  0.84424090     0.05850
H588        H  0.07098450  0.79441668  0.84529636     0.05700
C589        C  0.72186871  0.46159571  0.05769837     0.02730
C590        C  0.72448992  0.45972162  0.10002108    -0.13420
C591        C  0.74957785  0.99972142  0.12422008     0.00230
C592        C  0.77428938  0.04114657  0.10356760    -0.11940
C593        C  0.76908928  0.04268712  0.06135128     0.02730
C594        C  0.74115272  0.50299101  0.03944870    -0.11360
H595        H  0.70684242  0.42681194  0.11295495     0.08320
H596        H  0.79676452  0.07232105  0.11964624     0.05850
H597        H  0.73528257  0.50415254  0.34074009     0.05700
C598        C  0.73876526  0.45666730  0.23297538     0.02730
C599        C  0.73527161  0.45695939  0.19050322    -0.13420
C600        C  0.75072679  0.99823390  0.17017060     0.00230
C601        C  0.76620794  0.03820693  0.19472510    -0.11940
C602        C  0.77185028  0.03769848  0.23692408     0.02730
C603        C  0.76039382  0.99722704  0.25504467    -0.11360
H604        H  0.72028472  0.42479080  0.17448045     0.08320
H605        H  0.77472010  0.06998060  0.18166621     0.05850
H606        H  0.76651100  0.99682131  0.28714399     0.05700
O607        O  0.89826258  0.23914961  0.02324635    -0.82190
C608        C  0.79012226  0.07841084  0.26351864     0.97160
O609        O  0.82218171  0.08616285  0.28700922    -0.71310
O610        O  0.89796829  0.15986546  0.27107555    -0.74900
Al611      Al  0.86313278  0.13709155  0.31966307     1.48980
C612        C  0.91895247  0.20013912  0.26000332     0.92410
O613        O  0.83262679  0.22382778  0.25807158    -0.81120
O614        O  0.77174659  0.16955501  0.02863684    -0.74680
Al615      Al  0.86327859  0.22686946  0.30801750     1.90020
O616        O  0.76575301  0.17571079  0.28007474    -0.73750
O617        O  0.76567831  0.09017782  0.01429654    -0.73600
O618        O  0.77161646  0.10234315  0.26568697    -0.79260
O619        O  0.83256707  0.10945382  0.03633010    -0.77460
O620        O  0.83385052  0.16722546  0.31383735    -1.13600
O621        O  0.90980509  0.18185847  0.01939659    -0.72790
C622        C  0.91911348  0.21983316  0.03425176     0.97920
C623        C  0.79054587  0.20664688  0.25653128     0.94320
Al624      Al  0.77397346  0.13710905  0.31384138     1.55560
O625        O  0.90985365  0.22891655  0.27482790    -0.77410
C626        C  0.79049450  0.08423095  0.03785642     0.98490
C627        C  0.79032273  0.21212078  0.03086119     0.93370
O628        O  0.82243428  0.23666102  0.00743170    -0.82730
C629        C  0.73827881  0.28152237  0.06128238     0.02730
C630        C  0.76020992  0.26304310  0.03925635    -0.13420
C631        C  0.77197812  0.23436635  0.05742373     0.00230
C632        C  0.76632581  0.22814576  0.09961252    -0.11940
C633        C  0.75051422  0.25225540  0.12412746     0.02730
C634        C  0.73476157  0.27769733  0.10375159    -0.11360
H635        H  0.76632927  0.26962608  0.34049420     0.08320
H636        H  0.77504743  0.20510159  0.11268635     0.05850
H637        H  0.71956310  0.29458557  0.11973660     0.05700
C638        C  0.72140756  0.25958526  0.23654472     0.02730
C639        C  0.74090421  0.23783407  0.25483615    -0.13420
C640        C  0.76904441  0.22651374  0.23299095     0.00230
C641        C  0.77424815  0.23329757  0.19077942    -0.11940
C642        C  0.74933736  0.24959735  0.17007593     0.02730
C643        C  0.72403365  0.26410085  0.19422676    -0.11360
H644        H  0.73506768  0.23079241  0.28688529     0.08320
H645        H  0.79687287  0.22493561  0.17474815     0.05850
H646        H  0.70627005  0.27911266  0.18126982     0.05700
O647        O  0.60660720  0.27728056  0.03437920    -0.82190
C648        C  0.71463459  0.41560981  0.25675366     0.97160
O649        O  0.67964621  0.40893462  0.27545974    -0.71310
O650        O  0.60698808  0.32875863  0.25969574    -0.74900
Al651      Al  0.63668499  0.36226022  0.30880942     1.48980
C652        C  0.58112835  0.28651449  0.25990521     0.92410
O653        O  0.66227303  0.26371621  0.27038611    -0.81120
O654        O  0.73155835  0.33964381  0.03099947    -0.74680
Al655      Al  0.63634457  0.27353484  0.31864571     1.90120
O656        O  0.73188660  0.31797205  0.28225502    -0.73750
O657        O  0.73218473  0.41361049  0.01198042    -0.73600
O658        O  0.73179560  0.39158097  0.26318554    -0.79260
O659        O  0.66265567  0.39803690  0.02380381    -0.77460
O660        O  0.66685441  0.33310108  0.31374437    -1.13600
O661        O  0.58700583  0.32304938  0.00850587    -0.72790
C662        C  0.58106239  0.29386077  0.03410727     0.97920
C663        C  0.70387820  0.28210358  0.26343247     0.94320
Al664      Al  0.72671779  0.36311613  0.31377026     1.55560
O665        O  0.58678137  0.26306037  0.28546397    -0.77410
C666        C  0.70426593  0.42141417  0.03079394     0.98490
C667        C  0.71420491  0.29833299  0.03748004     0.93370
O668        O  0.67913468  0.26985614  0.01878944    -0.82730
C669        C  0.95940924  0.24372537  0.05993542     0.02730
C670        C  0.00030158  0.26515820  0.03965794    -0.13420
C671        C  0.54015379  0.27576801  0.05937518     0.00230
C672        C  0.53946148  0.26818211  0.10128142    -0.11940
C673        C  0.99892755  0.25166485  0.12414866     0.02730
C674        C  0.95853057  0.23793761  0.10214996    -0.11360
H675        H  0.00061217  0.27082169  0.34064520     0.08320
H676        H  0.57067074  0.27560426  0.11540262     0.05850
H677        H  0.92606807  0.22229642  0.11671359     0.05700
C678        C  0.54014650  0.26395820  0.23469082     0.02730
C679        C  0.00007909  0.23521852  0.25448917    -0.13420
C680        C  0.95917953  0.21644921  0.23428942     0.00230
C681        C  0.95836462  0.22145939  0.19208343    -0.11940
C682        C  0.99890206  0.24755331  0.17000720     0.02730
C683        C  0.53957743  0.27096726  0.19279649    -0.11360
H684        H  0.00031785  0.22976323  0.28682008     0.08320
H685        H  0.92586476  0.20508960  0.17757431     0.05850
H686        H  0.57098450  0.29441661  0.17862953     0.05700
C687        C  0.72186865  0.46159574  0.39103170     0.02730
C688        C  0.72448988  0.45972163  0.43335441    -0.13420
C689        C  0.74957785  0.99972140  0.45755338     0.00230
C690        C  0.77428935  0.04114655  0.43690090    -0.11940
C691        C  0.76908914  0.04268713  0.39468461     0.02730
C692        C  0.74115266  0.50299104  0.37278204    -0.11360
H693        H  0.70684240  0.42681195  0.44628827     0.08320
H694        H  0.79676455  0.07232102  0.45297954     0.05850
H695        H  0.73528275  0.50415248  0.67407341     0.05700
C696        C  0.73876532  0.45666724  0.56630871     0.02730
C697        C  0.73527161  0.45695935  0.52383655    -0.13420
C698        C  0.75072687  0.99823386  0.50350389     0.00230
C699        C  0.76620802  0.03820688  0.52805840    -0.11940
C700        C  0.77185042  0.03769843  0.57025736     0.02730
C701        C  0.76039401  0.99722699  0.58837793    -0.11360
H702        H  0.72028468  0.42479076  0.50781377     0.08320
H703        H  0.77472013  0.06998054  0.51499952     0.05850
H704        H  0.76651122  0.99682125  0.62047724     0.05700
O705        O  0.89826266  0.23914979  0.35657960    -0.82190
C706        C  0.79012238  0.07841079  0.59685191     0.97160
O707        O  0.82218183  0.08616283  0.62034249    -0.71310
O708        O  0.89796835  0.15986550  0.60440878    -0.74900
Al709      Al  0.86313289  0.13709156  0.65299632     1.48980
C710        C  0.91895254  0.20013917  0.59333661     0.92410
O711        O  0.83262683  0.22382778  0.59140489    -0.81120
O712        O  0.77174661  0.16955514  0.36197017    -0.74680
Al713      Al  0.86327861  0.22686943  0.64135082     1.90020
O714        O  0.76575305  0.17571070  0.61340799    -0.73750
O715        O  0.76567824  0.09017788  0.34762988    -0.73600
O716        O  0.77161656  0.10234308  0.59902023    -0.79260
O717        O  0.83256696  0.10945389  0.36966354    -0.77460
O718        O  0.83385058  0.16722542  0.64717062    -1.13600
O719        O  0.90980502  0.18185854  0.35273008    -0.72790
C720        C  0.91911349  0.21983331  0.36758513     0.97920
C721        C  0.79054591  0.20664684  0.58986457     0.94320
Al722      Al  0.77397352  0.13710897  0.64717464     1.55560
O723        O  0.90985371  0.22891658  0.60816124    -0.77410
C724        C  0.79049439  0.08423099  0.37118978     0.98490
C725        C  0.79032277  0.21212091  0.36419450     0.93370
O726        O  0.82243431  0.23666113  0.34076499    -0.82730
C727        C  0.73827883  0.28152248  0.39461572     0.02730
C728        C  0.76020996  0.26304324  0.37258968    -0.13420
C729        C  0.77197818  0.23436650  0.39075704     0.00230
C730        C  0.76632589  0.22814589  0.43294583    -0.11940
C731        C  0.75051429  0.25225550  0.45746079     0.02730
C732        C  0.73476161  0.27769742  0.43708494    -0.11360
H733        H  0.76632922  0.26962593  0.67382752     0.08320
H734        H  0.77504753  0.20510172  0.44601964     0.05850
H735        H  0.71956313  0.29458564  0.45306997     0.05700
C736        C  0.72140758  0.25958521  0.56987805     0.02730
C737        C  0.74090421  0.23783399  0.58816946    -0.13420
C738        C  0.76904444  0.22651370  0.56632425     0.00230
C739        C  0.77424821  0.23329760  0.52411273    -0.11940
C740        C  0.74933743  0.24959741  0.50340926     0.02730
C741        C  0.72403370  0.26410087  0.52756010    -0.11360
H742        H  0.73506766  0.23079229  0.62021859     0.08320
H743        H  0.79687295  0.22493567  0.50808144     0.05850
H744        H  0.70627012  0.27911272  0.51460318     0.05700
O745        O  0.60660719  0.27728066  0.36771255    -0.82190
C746        C  0.71463465  0.41560976  0.59008700     0.97160
O747        O  0.67964627  0.40893457  0.60879308    -0.71310
O748        O  0.60698813  0.32875860  0.59302909    -0.74900
Al749      Al  0.63668504  0.36226018  0.64214277     1.48980
C750        C  0.58112838  0.28651447  0.59323854     0.92410
O751        O  0.66227305  0.26371617  0.60371943    -0.81120
O752        O  0.73155834  0.33964389  0.36433281    -0.74680
Al753      Al  0.63634458  0.27353478  0.65197903     1.90120
O754        O  0.73188662  0.31797198  0.61558838    -0.73750
O755        O  0.73218470  0.41361055  0.34531374    -0.73600
O756        O  0.73179567  0.39158093  0.59651890    -0.79260
O757        O  0.66265564  0.39803695  0.35713711    -0.77460
O758        O  0.66685444  0.33310102  0.64707771    -1.13600
O759        O  0.58700581  0.32304945  0.34183918    -0.72790
C760        C  0.58106238  0.29386086  0.36744060     0.97920
C761        C  0.70387821  0.28210352  0.59676581     0.94320
Al762      Al  0.72671782  0.36311606  0.64710362     1.55560
O763        O  0.58678139  0.26306033  0.61879729    -0.77410
C764        C  0.70426589  0.42141421  0.36412726     0.98490
C765        C  0.71420491  0.29833309  0.37081340     0.93370
O766        O  0.67913467  0.26985623  0.35212281    -0.82730
C767        C  0.95940927  0.24372556  0.39326876     0.02730
C768        C  0.00030160  0.26515835  0.37299126    -0.13420
C769        C  0.54015378  0.27576812  0.39270852     0.00230
C770        C  0.53946149  0.26818222  0.43461475    -0.11940
C771        C  0.99892760  0.25166507  0.45748199     0.02730
C772        C  0.95853062  0.23793784  0.43548330    -0.11360
H773        H  0.00061222  0.27082166  0.67397852     0.08320
H774        H  0.57067076  0.27560438  0.44873595     0.05850
H775        H  0.92606813  0.22229669  0.45004695     0.05700
C776        C  0.54014653  0.26395820  0.56802414     0.02730
C777        C  0.00007915  0.23521858  0.58782247    -0.13420
C778        C  0.95917960  0.21644930  0.56762272     0.00230
C779        C  0.95836469  0.22145956  0.52541674    -0.11940
C780        C  0.99890213  0.24755350  0.50334052     0.02730
C781        C  0.53957746  0.27096730  0.52612983    -0.11360
H782        H  0.00031791  0.22976324  0.62015337     0.08320
H783        H  0.92586483  0.20508978  0.51090763     0.05850
H784        H  0.57098452  0.29441666  0.51196288     0.05700
C785        C  0.72186871  0.46159569  0.72436506     0.02730
C786        C  0.72448986  0.45972159  0.76668777    -0.13420
C787        C  0.74957795  0.99972139  0.79088665     0.00230
C788        C  0.77428947  0.04114654  0.77023418    -0.11940
C789        C  0.76908932  0.04268712  0.72801787     0.02730
C790        C  0.74115279  0.50299098  0.70611538    -0.11360
H791        H  0.70684232  0.42681192  0.77962165     0.08320
H792        H  0.79676462  0.07232102  0.78631282     0.05850
H793        H  0.73528262  0.50415251  0.00740674     0.05700
C794        C  0.73876527  0.45666727  0.89964207     0.02730
C795        C  0.73527157  0.45695936  0.85716992    -0.13420
C796        C  0.75072687  0.99823386  0.83683718     0.00230
C797        C  0.76620801  0.03820689  0.86139168    -0.11940
C798        C  0.77185030  0.03769844  0.90359066     0.02730
C799        C  0.76039382  0.99722700  0.92171125    -0.11360
H800        H  0.72028469  0.42479077  0.84114714     0.08320
H801        H  0.77472018  0.06998057  0.84833278     0.05850
H802        H  0.76651100  0.99682126  0.95381056     0.05700
O803        O  0.89826265  0.23914972  0.68991294    -0.82190
C804        C  0.79012227  0.07841077  0.93018523     0.97160
O805        O  0.82218172  0.08616278  0.95367579    -0.71310
O806        O  0.89796823  0.15986543  0.93774204    -0.74900
Al807      Al  0.86313281  0.13709149  0.98632961     1.48980
C808        C  0.91895246  0.20013912  0.92666993     0.92410
O809        O  0.83262681  0.22382776  0.92473828    -0.81120
O810        O  0.77174662  0.16955502  0.69530344    -0.74680
Al811      Al  0.86327858  0.22686938  0.97468421     1.90020
O812        O  0.76575302  0.17571070  0.94674138    -0.73750
O813        O  0.76567836  0.09017783  0.68096315    -0.73600
O814        O  0.77161645  0.10234306  0.93235360    -0.79260
O815        O  0.83256711  0.10945389  0.70299679    -0.77460
O816        O  0.83385052  0.16722537  0.98050398    -1.13600
O817        O  0.90980513  0.18185856  0.68606330    -0.72790
C818        C  0.91911353  0.21983329  0.70091841     0.97920
C819        C  0.79054589  0.20664683  0.92319795     0.94320
Al820      Al  0.77397346  0.13710896  0.98050802     1.55560
O821        O  0.90985369  0.22891654  0.94149463    -0.77410
C822        C  0.79049454  0.08423097  0.70452305     0.98490
C823        C  0.79032275  0.21212079  0.69752781     0.93370
O824        O  0.82243430  0.23666104  0.67409831    -0.82730
C825        C  0.73827879  0.28152234  0.72794904     0.02730
C826        C  0.76020991  0.26304308  0.70592299    -0.13420
C827        C  0.77197813  0.23436634  0.72409036     0.00230
C828        C  0.76632584  0.22814574  0.76627915    -0.11940
C829        C  0.75051423  0.25225535  0.79079411     0.02730
C830        C  0.73476156  0.27769728  0.77041825    -0.11360
H831        H  0.76632925  0.26962595  0.00716087     0.08320
H832        H  0.77504749  0.20510158  0.77935297     0.05850
H833        H  0.71956309  0.29458550  0.78640328     0.05700
C834        C  0.72140758  0.25958520  0.90321137     0.02730
C835        C  0.74090423  0.23783401  0.92150280    -0.13420
C836        C  0.76904443  0.22651367  0.89965761     0.00230
C837        C  0.77424815  0.23329749  0.85744607    -0.11940
C838        C  0.74933738  0.24959728  0.83674258     0.02730
C839        C  0.72403367  0.26410079  0.86089341    -0.11360
H840        H  0.73506770  0.23079235  0.95355195     0.08320
H841        H  0.79687286  0.22493551  0.84141479     0.05850
H842        H  0.70627007  0.27911261  0.84793648     0.05700
O843        O  0.60660720  0.27728058  0.70104587    -0.82190
C844        C  0.71463461  0.41560978  0.92342035     0.97160
O845        O  0.67964623  0.40893457  0.94212643    -0.71310
O846        O  0.60698810  0.32875859  0.92636243    -0.74900
Al847      Al  0.63668502  0.36226016  0.97547611     1.48980
C848        C  0.58112836  0.28651445  0.92657188     0.92410
O849        O  0.66227305  0.26371617  0.93705274    -0.81120
O850        O  0.73155833  0.33964379  0.69766617    -0.74680
Al851      Al  0.63634458  0.27353477  0.98531235     1.90120
O852        O  0.73188662  0.31797199  0.94892168    -0.73750
O853        O  0.73218474  0.41361048  0.67864711    -0.73600
O854        O  0.73179563  0.39158093  0.92985222    -0.79260
O855        O  0.66265569  0.39803691  0.69047046    -0.77460
O856        O  0.66685443  0.33310102  0.98041104    -1.13600
O857        O  0.58700585  0.32304941  0.67517253    -0.72790
C858        C  0.58106240  0.29386081  0.70077393     0.97920
C859        C  0.70387822  0.28210353  0.93009912     0.94320
Al860      Al  0.72671781  0.36311607  0.98043693     1.55560
O861        O  0.58678138  0.26306031  0.95213061    -0.77410
C862        C  0.70426594  0.42141416  0.69746063     0.98490
C863        C  0.71420490  0.29833297  0.70414673     0.93370
O864        O  0.67913466  0.26985613  0.68545612    -0.82730
C865        C  0.95940930  0.24372553  0.72660206     0.02730
C866        C  0.00030164  0.26515832  0.70632458    -0.13420
C867        C  0.54015380  0.27576807  0.72604185     0.00230
C868        C  0.53946150  0.26818217  0.76794809    -0.11940
C869        C  0.99892760  0.25166502  0.79081530     0.02730
C870        C  0.95853063  0.23793780  0.76881660    -0.11360
H871        H  0.00061216  0.27082157  0.00731189     0.08320
H872        H  0.57067077  0.27560434  0.78206929     0.05850
H873        H  0.92606813  0.22229664  0.78338023     0.05700
C874        C  0.54014651  0.26395818  0.90135748     0.02730
C875        C  0.00007908  0.23521855  0.92115580    -0.13420
C876        C  0.95917953  0.21644925  0.90095604     0.00230
C877        C  0.95836463  0.22145949  0.85875005    -0.11940
C878        C  0.99890209  0.24755344  0.83667384     0.02730
C879        C  0.53957745  0.27096727  0.85946317    -0.11360
H880        H  0.00031782  0.22976321  0.95348670     0.08320
H881        H  0.92586478  0.20508970  0.84424092     0.05850
H882        H  0.57098452  0.29441662  0.84529621     0.05700
C883        C  0.72186877  0.96159574  0.05769839     0.02730
C884        C  0.72448990  0.95972164  0.10002110    -0.13420
C885        C  0.74957789  0.49972140  0.12422004     0.00230
C886        C  0.77428938  0.54114654  0.10356756    -0.11940
C887        C  0.76908919  0.54268711  0.06135126     0.02730
C888        C  0.74115283  0.00299103  0.03944871    -0.11360
H889        H  0.70684236  0.92681197  0.11295498     0.08320
H890        H  0.79676455  0.57232102  0.11964619     0.05850
H891        H  0.73528253  0.00415255  0.34074009     0.05700
C892        C  0.73876519  0.95666730  0.23297542     0.02730
C893        C  0.73527151  0.95695939  0.19050327    -0.13420
C894        C  0.75072687  0.49823389  0.17017056     0.00230
C895        C  0.76620801  0.53820692  0.19472506    -0.11940
C896        C  0.77185034  0.53769848  0.23692404     0.02730
C897        C  0.76039387  0.49722704  0.25504464    -0.11360
H898        H  0.72028462  0.92479081  0.17448049     0.08320
H899        H  0.77472016  0.56998059  0.18166616     0.05850
H900        H  0.76651102  0.49682131  0.28714395     0.05700
O901        O  0.89826267  0.73914971  0.02324634    -0.82190
C902        C  0.79012230  0.57841083  0.26351860     0.97160
O903        O  0.82218172  0.58616283  0.28700920    -0.71310
O904        O  0.89796827  0.65986546  0.27107552    -0.74900
Al905      Al  0.86313278  0.63709153  0.31966305     1.48980
C906        C  0.91895247  0.70013913  0.26000334     0.92410
O907        O  0.83262683  0.72382784  0.25807164    -0.81120
O908        O  0.77174661  0.66955511  0.02863686    -0.74680
Al909      Al  0.86327859  0.72686944  0.30801757     1.90020
O910        O  0.76575303  0.67571078  0.28007470    -0.73750
O911        O  0.76567826  0.59017786  0.01429656    -0.73600
O912        O  0.77161650  0.60234314  0.26568691    -0.79260
O913        O  0.83256700  0.60945385  0.03633018    -0.77460
O914        O  0.83385052  0.66722543  0.31383735    -1.13600
O915        O  0.90980506  0.68185848  0.01939671    -0.72790
C916        C  0.91911351  0.71983323  0.03425181     0.97920
C917        C  0.79054592  0.70664692  0.25653129     0.94320
Al918      Al  0.77397346  0.63710901  0.31384133     1.55560
O919        O  0.90985367  0.72891656  0.27482798    -0.77410
C920        C  0.79049443  0.58423096  0.03785644     0.98490
C921        C  0.79032279  0.71212088  0.03086121     0.93370
O922        O  0.82243435  0.73666110  0.00743172    -0.82730
C923        C  0.73827892  0.78152254  0.06128240     0.02730
C924        C  0.76021002  0.76304324  0.03925637    -0.13420
C925        C  0.77197820  0.73436648  0.05742374     0.00230
C926        C  0.76632591  0.72814590  0.09961254    -0.11940
C927        C  0.75051434  0.75225555  0.12412749     0.02730
C928        C  0.73476170  0.77769750  0.10375162    -0.11360
H929        H  0.76632924  0.76962603  0.34049424     0.08320
H930        H  0.77504752  0.70510172  0.11268637     0.05850
H931        H  0.71956324  0.79458575  0.11973664     0.05700
C932        C  0.72140761  0.75958530  0.23654475     0.02730
C933        C  0.74090425  0.73783410  0.25483617    -0.13420
C934        C  0.76904448  0.72651380  0.23299097     0.00230
C935        C  0.77424824  0.73329768  0.19077944    -0.11940
C936        C  0.74933747  0.74959748  0.17007596     0.02730
C937        C  0.72403374  0.76410095  0.19422679    -0.11360
H938        H  0.73506769  0.73079240  0.28688530     0.08320
H939        H  0.79687298  0.72493574  0.17474816     0.05850
H940        H  0.70627016  0.77911279  0.18126985     0.05700
O941        O  0.60660722  0.77728067  0.03437928    -0.82190
C942        C  0.71463454  0.91560981  0.25675370     0.97160
O943        O  0.67964614  0.90893457  0.27545976    -0.71310
O944        O  0.60698805  0.82875856  0.25969579    -0.74900
Al945      Al  0.63668495  0.86226017  0.30880946     1.48980
C946        C  0.58112833  0.78651442  0.25990526     0.92410
O947        O  0.66227306  0.76371620  0.27038617    -0.81120
O948        O  0.73155846  0.83964394  0.03099942    -0.74680
Al949      Al  0.63634457  0.77353481  0.31864576     1.90120
O950        O  0.73188661  0.81797208  0.28225506    -0.73750
O951        O  0.73218477  0.91361057  0.01198034    -0.73600
O952        O  0.73179559  0.89158099  0.26318560    -0.79260
O953        O  0.66265571  0.89803692  0.02380386    -0.77460
O954        O  0.66685439  0.83310105  0.31374442    -1.13600
O955        O  0.58700584  0.82304945  0.00850591    -0.72790
C956        C  0.58106240  0.79386086  0.03410733     0.97920
C957        C  0.70387822  0.78210360  0.26343251     0.94320
Al958      Al  0.72671777  0.86311613  0.31377031     1.55560
O959        O  0.58678137  0.76306031  0.28546401    -0.77410
C960        C  0.70426598  0.92141421  0.03079395     0.98490
C961        C  0.71420500  0.79833314  0.03748007     0.93370
O962        O  0.67913472  0.76985626  0.01878955    -0.82730
C963        C  0.95940930  0.74372544  0.05993546     0.02730
C964        C  0.00030164  0.76515822  0.03965797    -0.13420
C965        C  0.54015379  0.77576811  0.05937524     0.00230
C966        C  0.53946148  0.76818218  0.10128147    -0.11940
C967        C  0.99892759  0.75166495  0.12414870     0.02730
C968        C  0.95853062  0.73793773  0.10215000    -0.11360
H969        H  0.00061218  0.77082159  0.34064526     0.08320
H970        H  0.57067073  0.77560431  0.11540267     0.05850
H971        H  0.92606813  0.72229659  0.11671364     0.05700
C972        C  0.54014649  0.76395811  0.23469085     0.02730
C973        C  0.00007908  0.73521855  0.25448920    -0.13420
C974        C  0.95917953  0.71644924  0.23428945     0.00230
C975        C  0.95836463  0.72145946  0.19208346    -0.11940
C976        C  0.99890208  0.74755341  0.17000724     0.02730
C977        C  0.53957741  0.77096722  0.19279654    -0.11360
H978        H  0.00031783  0.72976322  0.28682011     0.08320
H979        H  0.92586478  0.70508965  0.17757433     0.05850
H980        H  0.57098447  0.79441662  0.17862960     0.05700
C981        C  0.72186860  0.96159574  0.39103171     0.02730
C982        C  0.72448983  0.95972163  0.43335441    -0.13420
C983        C  0.74957786  0.49972140  0.45755339     0.00230
C984        C  0.77428934  0.54114655  0.43690091    -0.11940
C985        C  0.76908915  0.54268713  0.39468461     0.02730
C986        C  0.74115263  0.00299105  0.37278204    -0.11360
H987        H  0.70684233  0.92681196  0.44628828     0.08320
H988        H  0.79676452  0.57232103  0.45297954     0.05850
H989        H  0.73528279  0.00415253  0.67407334     0.05700
C990        C  0.73876536  0.95666724  0.56630868     0.02730
C991        C  0.73527164  0.95695935  0.52383653    -0.13420
C992        C  0.75072686  0.49823386  0.50350390     0.00230
C993        C  0.76620803  0.53820688  0.52805842    -0.11940
C994        C  0.77185040  0.53769843  0.57025739     0.02730
C995        C  0.76039397  0.49722699  0.58837796    -0.11360
H996        H  0.72028473  0.92479076  0.50781374     0.08320
H997        H  0.77472016  0.56998055  0.51499953     0.05850
H998        H  0.76651117  0.49682125  0.62047727     0.05700
O999        O  0.89826262  0.73914970  0.35657969    -0.82190
C1000       C  0.79012234  0.57841076  0.59685196     0.97160
O1001       O  0.82218177  0.58616277  0.62034256    -0.71310
O1002       O  0.89796830  0.65986542  0.60440886    -0.74900
Al1003     Al  0.86313282  0.63709149  0.65299640     1.48980
C1004       C  0.91895248  0.70013909  0.59333668     0.92410
O1005       O  0.83262680  0.72382774  0.59140497    -0.81120
O1006       O  0.77174655  0.66955506  0.36197014    -0.74680
Al1007     Al  0.86327858  0.72686938  0.64135090     1.90020
O1008       O  0.76575302  0.67571066  0.61340806    -0.73750
O1009       O  0.76567824  0.59017784  0.34762984    -0.73600
O1010       O  0.77161653  0.60234306  0.59902028    -0.79260
O1011       O  0.83256697  0.60945387  0.36966351    -0.77460
O1012       O  0.83385054  0.66722537  0.64717070    -1.13600
O1013       O  0.90980504  0.68185850  0.35273005    -0.72790
C1014       C  0.91911348  0.71983324  0.36758516     0.97920
C1015       C  0.79054588  0.70664679  0.58986463     0.94320
Al1016     Al  0.77397348  0.63710893  0.64717470     1.55560
O1017       O  0.90985366  0.72891651  0.60816130    -0.77410
C1018       C  0.79049440  0.58423097  0.37118976     0.98490
C1019       C  0.79032271  0.71212082  0.36419452     0.93370
O1020       O  0.82243429  0.73666108  0.34076506    -0.82730
C1021       C  0.73827882  0.78152244  0.39461577     0.02730
C1022       C  0.76020992  0.76304317  0.37258972    -0.13420
C1023       C  0.77197810  0.73436639  0.39075707     0.00230
C1024       C  0.76632579  0.72814575  0.43294585    -0.11940
C1025       C  0.75051420  0.75225537  0.45746083     0.02730
C1026       C  0.73476157  0.77769734  0.43708498    -0.11360
H1027       H  0.76632922  0.76962592  0.67382756     0.08320
H1028       H  0.77504740  0.70510157  0.44601967     0.05850
H1029       H  0.71956311  0.79458558  0.45307002     0.05700
C1030       C  0.72140748  0.75958508  0.56987808     0.02730
C1031       C  0.74090416  0.73783392  0.58816950    -0.13420
C1032       C  0.76904440  0.72651363  0.56632430     0.00230
C1033       C  0.77424813  0.73329748  0.52411276    -0.11940
C1034       C  0.74933733  0.74959726  0.50340929     0.02730
C1035       C  0.72403357  0.76410070  0.52756013    -0.11360
H1036       H  0.73506764  0.73079225  0.62021865     0.08320
H1037       H  0.79687287  0.72493556  0.50808148     0.05850
H1038       H  0.70626996  0.77911251  0.51460320     0.05700
O1039       O  0.60660716  0.77728060  0.36771259    -0.82190
C1040       C  0.71463467  0.91560975  0.59008695     0.97160
O1041       O  0.67964628  0.90893455  0.60879301    -0.71310
O1042       O  0.60698812  0.82875855  0.59302907    -0.74900
Al1043     Al  0.63668506  0.86226018  0.64214273     1.48980
C1044       C  0.58112837  0.78651441  0.59323857     0.92410
O1045       O  0.66227300  0.76371606  0.60371953    -0.81120
O1046       O  0.73155835  0.83964387  0.36433286    -0.74680
Al1047     Al  0.63634457  0.77353478  0.65197910     1.90120
O1048       O  0.73188658  0.81797192  0.61558834    -0.73750
O1049       O  0.73218466  0.91361053  0.34531380    -0.73600
O1050       O  0.73179567  0.89158088  0.59651884    -0.79260
O1051       O  0.66265559  0.89803694  0.35713713    -0.77460
O1052       O  0.66685445  0.83310102  0.64707771    -1.13600
O1053       O  0.58700577  0.82304939  0.34183922    -0.72790
C1054       C  0.58106234  0.79386080  0.36744063     0.97920
C1055       C  0.70387815  0.78210343  0.59676584     0.94320
Al1056     Al  0.72671783  0.86311603  0.64710356     1.55560
O1057       O  0.58678138  0.76306031  0.61879735    -0.77410
C1058       C  0.70426584  0.92141421  0.36412729     0.98490
C1059       C  0.71420491  0.79833306  0.37081345     0.93370
O1060       O  0.67913467  0.76985621  0.35212287    -0.82730
C1061       C  0.95940926  0.74372546  0.39326881     0.02730
C1062       C  0.00030160  0.76515824  0.37299132    -0.13420
C1063       C  0.54015374  0.77576806  0.39270856     0.00230
C1064       C  0.53946144  0.76818212  0.43461478    -0.11940
C1065       C  0.99892756  0.75166496  0.45748204     0.02730
C1066       C  0.95853059  0.73793774  0.43548335    -0.11360
H1067       H  0.00061221  0.77082156  0.67397858     0.08320
H1068       H  0.57067070  0.77560425  0.44873597     0.05850
H1069       H  0.92606810  0.72229661  0.45004699     0.05700
C1070       C  0.54014652  0.76395810  0.56802417     0.02730
C1071       C  0.00007908  0.73521852  0.58782253    -0.13420
C1072       C  0.95917954  0.71644921  0.56762278     0.00230
C1073       C  0.95836462  0.72145944  0.52541679    -0.11940
C1074       C  0.99890207  0.74755341  0.50334058     0.02730
C1075       C  0.53957743  0.77096720  0.52612986    -0.11360
H1076       H  0.00031784  0.72976317  0.62015343     0.08320
H1077       H  0.92586477  0.70508963  0.51090767     0.05850
H1078       H  0.57098448  0.79441660  0.51196290     0.05700
C1079       C  0.72186881  0.96159573  0.72436497     0.02730
C1080       C  0.72448999  0.95972162  0.76668767    -0.13420
C1081       C  0.74957783  0.49972138  0.79088675     0.00230
C1082       C  0.77428935  0.54114652  0.77023427    -0.11940
C1083       C  0.76908923  0.54268708  0.72801796     0.02730
C1084       C  0.74115286  0.00299102  0.70611530    -0.11360
H1085       H  0.70684247  0.92681194  0.77962154     0.08320
H1086       H  0.79676450  0.57232100  0.78631291     0.05850
H1087       H  0.73528277  0.00415253  0.00740675     0.05700
C1088       C  0.73876520  0.95666725  0.89964200     0.02730
C1089       C  0.73527157  0.95695935  0.85716984    -0.13420
C1090       C  0.75072680  0.49823386  0.83683726     0.00230
C1091       C  0.76620793  0.53820689  0.86139176    -0.11940
C1092       C  0.77185030  0.53769845  0.90359074     0.02730
C1093       C  0.76039388  0.49722702  0.92171132    -0.11360
H1094       H  0.72028468  0.92479076  0.84114706     0.08320
H1095       H  0.77472005  0.56998055  0.84833287     0.05850
H1096       H  0.76651108  0.49682129  0.95381063     0.05700
O1097       O  0.89826264  0.73914967  0.68991301    -0.82190
C1098       C  0.79012227  0.57841080  0.93018530     0.97160
O1099       O  0.82218172  0.58616282  0.95367587    -0.71310
O1100       O  0.89796828  0.65986544  0.93774218    -0.74900
Al1101     Al  0.86313280  0.63709152  0.98632971     1.48980
C1102       C  0.91895249  0.70013911  0.92667000     0.92410
O1103       O  0.83262684  0.72382781  0.92473831    -0.81120
O1104       O  0.77174657  0.66955498  0.69530351    -0.74680
Al1105     Al  0.86327862  0.72686944  0.97468422     1.90020
O1106       O  0.76575305  0.67571077  0.94674141    -0.73750
O1107       O  0.76567829  0.59017778  0.68096321    -0.73600
O1108       O  0.77161647  0.60234312  0.93235363    -0.79260
O1109       O  0.83256703  0.60945382  0.70299687    -0.77460
O1110       O  0.83385054  0.66722543  0.98050403    -1.13600
O1111       O  0.90980508  0.68185847  0.68606339    -0.72790
C1112       C  0.91911351  0.71983321  0.70091849     0.97920
C1113       C  0.79054592  0.70664689  0.92319798     0.94320
Al1114     Al  0.77397348  0.63710902  0.98050805     1.55560
O1115       O  0.90985369  0.72891654  0.94149462    -0.77410
C1116       C  0.79049446  0.58423092  0.70452312     0.98490
C1117       C  0.79032272  0.71212075  0.69752788     0.93370
O1118       O  0.82243428  0.73666100  0.67409840    -0.82730
C1119       C  0.73827882  0.78152237  0.72794908     0.02730
C1120       C  0.76020991  0.76304308  0.70592304    -0.13420
C1121       C  0.77197810  0.73436632  0.72409041     0.00230
C1122       C  0.76632580  0.72814573  0.76627920    -0.11940
C1123       C  0.75051422  0.75225537  0.79079416     0.02730
C1124       C  0.73476159  0.77769732  0.77041829    -0.11360
H1125       H  0.76632933  0.76962607  0.00716089     0.08320
H1126       H  0.77504742  0.70510156  0.77935304     0.05850
H1127       H  0.71956314  0.79458558  0.78640331     0.05700
C1128       C  0.72140754  0.75958519  0.90321141     0.02730
C1129       C  0.74090423  0.73783405  0.92150284    -0.13420
C1130       C  0.76904445  0.72651374  0.89965765     0.00230
C1131       C  0.77424817  0.73329756  0.85744611    -0.11940
C1132       C  0.74933736  0.74959731  0.83674262     0.02730
C1133       C  0.72403361  0.76410077  0.86089345    -0.11360
H1134       H  0.73506771  0.73079240  0.95355199     0.08320
H1135       H  0.79687290  0.72493561  0.84141483     0.05850
H1136       H  0.70626999  0.77911255  0.84793650     0.05700
O1137       O  0.60660721  0.77728067  0.70104593    -0.82190
C1138       C  0.71463454  0.91560978  0.92342030     0.97160
O1139       O  0.67964622  0.90893463  0.94212647    -0.71310
O1140       O  0.60698809  0.82875864  0.92636249    -0.74900
Al1141     Al  0.63668502  0.86226022  0.97547616     1.48980
C1142       C  0.58112838  0.78651450  0.92657194     0.92410
O1143       O  0.66227303  0.76371616  0.93705284    -0.81120
O1144       O  0.73155841  0.83964381  0.69766612    -0.74680
Al1145     Al  0.63634460  0.77353484  0.98531244     1.90120
O1146       O  0.73188660  0.81797203  0.94892165    -0.73750
O1147       O  0.73218480  0.91361048  0.67864703    -0.73600
O1148       O  0.73179553  0.89158090  0.92985213    -0.79260
O1149       O  0.66265575  0.89803696  0.69047039    -0.77460
O1150       O  0.66685444  0.83310107  0.98041107    -1.13600
O1151       O  0.58700587  0.82304947  0.67517251    -0.72790
C1152       C  0.58106242  0.79386089  0.70077396     0.97920
C1153       C  0.70387819  0.78210353  0.93009915     0.94320
Al1154     Al  0.72671782  0.86311612  0.98043687     1.55560
O1155       O  0.58678140  0.76306037  0.95213068    -0.77410
C1156       C  0.70426601  0.92141419  0.69746054     0.98490
C1157       C  0.71420493  0.79833300  0.70414675     0.93370
O1158       O  0.67913465  0.76985616  0.68545622    -0.82730
C1159       C  0.95940929  0.74372545  0.72660213     0.02730
C1160       C  0.00030163  0.76515823  0.70632464    -0.13420
C1161       C  0.54015381  0.77576819  0.72604189     0.00230
C1162       C  0.53946152  0.76818231  0.76794812    -0.11940
C1163       C  0.99892760  0.75166496  0.79081537     0.02730
C1164       C  0.95853062  0.73793774  0.76881667    -0.11360
H1165       H  0.00061222  0.77082156  0.00731192     0.08320
H1166       H  0.57067078  0.77560447  0.78206933     0.05850
H1167       H  0.92606813  0.72229660  0.78338031     0.05700
C1168       C  0.54014653  0.76395821  0.90135752     0.02730
C1169       C  0.00007910  0.73521853  0.92115586    -0.13420
C1170       C  0.95917955  0.71644922  0.90095611     0.00230
C1171       C  0.95836464  0.72145945  0.85875012    -0.11940
C1172       C  0.99890210  0.74755341  0.83667391     0.02730
C1173       C  0.53957746  0.77096735  0.85946321    -0.11360
H1174       H  0.00031786  0.72976319  0.95348676     0.08320
H1175       H  0.92586479  0.70508965  0.84424099     0.05850
H1176       H  0.57098452  0.79441676  0.84529628     0.05700
loop_ 
_geom_bond_atom_site_label_1 
_geom_bond_atom_site_label_2 
_geom_bond_distance 
_geom_bond_site_symmetry_2 
_ccdc_geom_bond_type 
C1            C2   1.395       .  A
C1            C6   1.384       .  A
C1           C78   1.464       .  S
C2          C297   1.421       .  A
C2            H7   1.077       .  S
C3            C4   1.427   1_565  A
C3          C296   1.421       .  A
C3           C12   1.508       .  S
C4            C5   1.402       .  A
C4            H8   1.080       .  S
C5          C300   1.392       .  A
C5           C38   1.473       .  S
C6          C299   1.392       .  A
C6          H205   1.077       .  S
H9          C104   1.077       .  S
C10          C11   1.398       .  A
C10         C309   1.388       .  A
C10          C60   1.470       .  S
C11         C306   1.425       .  A
C11          H16   1.077       .  S
C12          C13   1.421   1_565  A
C12         C305   1.425       .  A
C13          C14   1.400       .  A
C13          H17   1.080       .  S
C14          C15   1.392   1_545  A
C14          C20   1.470       .  S
C15         C304   1.388       .  A
C15          H18   1.077       .  S
O19          C34   1.260       .  A
O19        Al223   1.914   1_554  S
C20          O30   1.268       .  A
C20          O21   1.264       .  A
O21         Al23   1.907       .  S
O22          C24   1.260       .  A
O22         Al23   1.912       .  S
Al23        O129   1.931       .  S
Al23        O131   1.892       .  S
Al23         O32   1.787       .  S
C24          C92   1.467       .  S
C24          O37   1.259       .  A
O25          C35   1.261       .  A
O25         Al27   1.932       .  S
O26          C39   1.268       .  A
O26        Al232   1.922   1_554  S
Al27         O37   1.894       .  S
Al27        O117   1.914       .  S
Al27        O138   1.908       .  S
Al27         O32   1.788       .  S
O28          C35   1.254       .  A
O28         Al36   1.883       .  S
O29          C38   1.254       .  A
O29        Al232   1.884   1_554  S
O30         Al36   1.923       .  S
O31          C38   1.261       .  A
O31        Al219   1.931   1_554  S
O32         Al36   1.782       .  S
O33          C34   1.258       .  A
O33        Al219   1.892   1_554  S
C34          C81   1.467       .  S
C35          C52   1.473       .  S
Al36        O124   1.922       .  S
Al36        O127   1.884       .  S
C39          C43   1.470       .  S
C39          O40   1.265       .  A
O40        Al223   1.908   1_554  S
C41          C42   1.388       .  A
C41          C46   1.398       .  A
C41          C79   1.470       .  S
C42          C43   1.392       .  A
C42         H243   1.077       .  S
C43          C44   1.400       .  A
C44          C45   1.421       .  A
C44          H48   1.080       .  S
C45          C46   1.425       .  A
C45          C54   1.508       .  S
C46          H49   1.077       .  S
H47         C140   1.077       .  S
C50          C51   1.384       .  A
C50          C55   1.395       .  A
C50          C75   1.464       .  S
C51          C52   1.392       .  A
C51          H56   1.077       .  S
C52          C53   1.402       .  A
C53          C54   1.427       .  A
C53          H57   1.080       .  S
C54          C55   1.421       .  A
C55          H58   1.077       .  S
O59          C74   1.266       .  A
O59        Al263   1.925   1_554  S
C60          O70   1.257       .  A
C60          O61   1.259       .  A
O61         Al63   1.905       .  S
O62          C64   1.265       .  A
O62         Al63   1.924       .  S
Al63        O169   1.904       .  S
Al63        O171   1.905       .  S
Al63         O72   1.780       .  S
C64          C90   1.473       .  S
C64          O77   1.263       .  A
O65          C75   1.261       .  A
O65         Al67   1.904       .  S
O66          C79   1.257       .  A
O66        Al272   1.911   1_554  S
Al67         O77   1.907       .  S
Al67        O157   1.925       .  S
Al67        O178   1.907       .  S
Al67         O72   1.781       .  S
O68          C75   1.266       .  A
O68         Al76   1.914       .  S
O69          C78   1.266       .  A
O69        Al272   1.915   1_554  S
O70         Al76   1.912       .  S
O71          C78   1.261       .  A
O71        Al259   1.904   1_554  S
O72         Al76   1.782       .  S
O73          C74   1.263       .  A
O73        Al259   1.905   1_554  S
C74          C83   1.473       .  S
Al76        O164   1.911       .  S
Al76        O167   1.915       .  S
C79          O80   1.259       .  A
O80        Al263   1.907   1_554  S
C81          C82   1.387       .  A
C81          C86   1.400       .  A
C82         C671   1.394       .  A
C82         H283   1.082       .  S
C83          C84   1.402       .  A
C83         C670   1.394       .  A
C84         C673   1.424   1_455  A
C84          H88   1.080       .  S
C85          C86   1.423       .  A
C85         C672   1.424       .  A
C85          C94   1.512       .  S
C86          H89   1.077       .  S
H87         C180   1.082       .  S
C90          C95   1.402       .  A
C90         C679   1.393       .  A
C91          C92   1.387       .  A
C91         C678   1.393       .  A
C91          H96   1.082       .  S
C92          C93   1.400       .  A
C93          C94   1.423       .  A
C93          H97   1.077       .  S
C94         C683   1.423       .  A
C95         C682   1.423   1_455  A
C95          H98   1.080       .  S
C99         C100   1.395       .  A
C99         C104   1.384       .  A
C99         C176   1.464       .  S
C100        C395   1.421       .  A
C100        H105   1.077       .  S
C101        C394   1.421       .  A
C101        C102   1.427   1_565  A
C101        C110   1.508       .  S
C102        C103   1.402       .  A
C102        H106   1.080       .  S
C103        C398   1.392       .  A
C103        C136   1.473       .  S
C104        C397   1.392       .  A
H107        C202   1.077       .  S
C108        C109   1.398       .  A
C108        C407   1.388       .  A
C108        C158   1.470       .  S
C109        C404   1.425       .  A
C109        H114   1.077       .  S
C110        C403   1.425       .  A
C110        C111   1.421   1_565  A
C111        C112   1.400       .  A
C111        H115   1.080       .  S
C112        C113   1.392   1_545  A
C112        C118   1.470       .  S
C113        C402   1.388       .  A
C113        H116   1.077       .  S
O117        C132   1.260       .  A
C118        O128   1.268       .  A
C118        O119   1.264       .  A
O119       Al121   1.907       .  S
O120        C122   1.260       .  A
O120       Al121   1.912       .  S
Al121       O227   1.931       .  S
Al121       O229   1.892       .  S
Al121       O130   1.787       .  S
C122        C190   1.467       .  S
C122        O135   1.259       .  A
O123        C133   1.261       .  A
O123       Al125   1.932       .  S
O124        C137   1.268       .  A
Al125       O215   1.914       .  S
Al125       O236   1.908       .  S
Al125       O135   1.894       .  S
Al125       O130   1.788       .  S
O126        C133   1.254       .  A
O126       Al134   1.883       .  S
O127        C136   1.254       .  A
O128       Al134   1.923       .  S
O129        C136   1.261       .  A
O130       Al134   1.782       .  S
O131        C132   1.258       .  A
C132        C179   1.467       .  S
C133        C150   1.473       .  S
Al134       O222   1.922       .  S
Al134       O225   1.884       .  S
C137        C141   1.470       .  S
C137        O138   1.265       .  A
C139        C140   1.388       .  A
C139        C144   1.398       .  A
C139        C177   1.470       .  S
C140        C141   1.392       .  A
C141        C142   1.400       .  A
C142        C143   1.421       .  A
C142        H146   1.080       .  S
C143        C144   1.425       .  A
C143        C152   1.508       .  S
C144        H147   1.077       .  S
H145        C238   1.077       .  S
C148        C149   1.384       .  A
C148        C153   1.395       .  A
C148        C173   1.464       .  S
C149        C150   1.392       .  A
C149        H154   1.077       .  S
C150        C151   1.402       .  A
C151        C152   1.427       .  A
C151        H155   1.080       .  S
C152        C153   1.421       .  A
C153        H156   1.077       .  S
O157        C172   1.266       .  A
C158        O168   1.257       .  A
C158        O159   1.259       .  A
O159       Al161   1.905       .  S
O160        C162   1.265       .  A
O160       Al161   1.924       .  S
Al161       O267   1.904       .  S
Al161       O269   1.905       .  S
Al161       O170   1.780       .  S
C162        C188   1.473       .  S
C162        O175   1.263       .  A
O163        C173   1.261       .  A
O163       Al165   1.904       .  S
O164        C177   1.257       .  A
Al165       O255   1.925       .  S
Al165       O276   1.907       .  S
Al165       O175   1.907       .  S
Al165       O170   1.781       .  S
O166        C173   1.266       .  A
O166       Al174   1.914       .  S
O167        C176   1.266       .  A
O168       Al174   1.912       .  S
O169        C176   1.261       .  A
O170       Al174   1.782       .  S
O171        C172   1.263       .  A
C172        C181   1.473       .  S
Al174       O262   1.911       .  S
Al174       O265   1.915       .  S
C177        O178   1.259       .  A
C179        C180   1.387       .  A
C179        C184   1.400       .  A
C180        C769   1.394       .  A
C181        C768   1.394       .  A
C181        C182   1.402       .  A
C182        C771   1.424   1_455  A
C182        H186   1.080       .  S
C183        C770   1.424       .  A
C183        C184   1.423       .  A
C183        C192   1.512       .  S
C184        H187   1.077       .  S
H185        C278   1.082       .  S
C188        C777   1.393       .  A
C188        C193   1.402       .  A
C189        C776   1.393       .  A
C189        C190   1.387       .  A
C189        H194   1.082       .  S
C190        C191   1.400       .  A
C191        C192   1.423       .  A
C191        H195   1.077       .  S
C192        C781   1.423       .  A
C193        C780   1.423   1_455  A
C193        H196   1.080       .  S
C197        C198   1.395       .  A
C197        C202   1.384       .  A
C197        C274   1.464       .  S
C198        C493   1.421       .  A
C198        H203   1.077       .  S
C199        C492   1.421       .  A
C199        C200   1.427   1_565  A
C199        C208   1.508       .  S
C200        C201   1.402       .  A
C200        H204   1.080       .  S
C201        C496   1.392       .  A
C201        C234   1.473       .  S
C202        C495   1.392       .  A
C206        C207   1.398       .  A
C206        C505   1.388       .  A
C206        C256   1.470       .  S
C207        C502   1.425       .  A
C207        H212   1.077       .  S
C208        C501   1.425       .  A
C208        C209   1.421   1_565  A
C209        C210   1.400       .  A
C209        H213   1.080       .  S
C210        C211   1.392   1_545  A
C210        C216   1.470       .  S
C211        C500   1.388       .  A
C211        H214   1.077       .  S
O215        C230   1.260       .  A
C216        O226   1.268       .  A
C216        O217   1.264       .  A
O217       Al219   1.907       .  S
O218        C220   1.260       .  A
O218       Al219   1.912       .  S
Al219       O228   1.787       .  S
C220        C288   1.467       .  S
C220        O233   1.259       .  A
O221        C231   1.261       .  A
O221       Al223   1.932       .  S
O222        C235   1.268       .  A
Al223       O233   1.894       .  S
Al223       O228   1.788       .  S
O224        C231   1.254       .  A
O224       Al232   1.883       .  S
O225        C234   1.254       .  A
O226       Al232   1.923       .  S
O227        C234   1.261       .  A
O228       Al232   1.782       .  S
O229        C230   1.258       .  A
C230        C277   1.467       .  S
C231        C248   1.473       .  S
C235        C239   1.470       .  S
C235        O236   1.265       .  A
C237        C238   1.388       .  A
C237        C242   1.398       .  A
C237        C275   1.470       .  S
C238        C239   1.392       .  A
C239        C240   1.400       .  A
C240        C241   1.421       .  A
C240        H244   1.080       .  S
C241        C242   1.425       .  A
C241        C250   1.508       .  S
C242        H245   1.077       .  S
C246        C247   1.384       .  A
C246        C251   1.395       .  A
C246        C271   1.464       .  S
C247        C248   1.392       .  A
C247        H252   1.077       .  S
C248        C249   1.402       .  A
C249        C250   1.427       .  A
C249        H253   1.080       .  S
C250        C251   1.421       .  A
C251        H254   1.077       .  S
O255        C270   1.266       .  A
C256        O266   1.257       .  A
C256        O257   1.259       .  A
O257       Al259   1.905       .  S
O258        C260   1.265       .  A
O258       Al259   1.924       .  S
Al259       O268   1.780       .  S
C260        C286   1.473       .  S
C260        O273   1.263       .  A
O261        C271   1.261       .  A
O261       Al263   1.904       .  S
O262        C275   1.257       .  A
Al263       O273   1.907       .  S
Al263       O268   1.781       .  S
O264        C271   1.266       .  A
O264       Al272   1.914       .  S
O265        C274   1.266       .  A
O266       Al272   1.912       .  S
O267        C274   1.261       .  A
O268       Al272   1.782       .  S
O269        C270   1.263       .  A
C270        C279   1.473       .  S
C275        O276   1.259       .  A
C277        C278   1.387       .  A
C277        C282   1.400       .  A
C278        C867   1.394       .  A
C279        C866   1.394       .  A
C279        C280   1.402       .  A
C280        C869   1.424   1_455  A
C280        H284   1.080       .  S
C281        C868   1.424       .  A
C281        C282   1.423       .  A
C281        C290   1.512       .  S
C282        H285   1.077       .  S
C286        C875   1.393       .  A
C286        C291   1.402       .  A
C287        C874   1.393       .  A
C287        C288   1.387       .  A
C287        H292   1.082       .  S
C288        C289   1.400       .  A
C289        C290   1.423       .  A
C289        H293   1.077       .  S
C290        C879   1.423       .  A
C291        C878   1.423   1_455  A
C291        H294   1.080       .  S
C295        C296   1.395       .  A
C295        C300   1.384   1_565  A
C295        C372   1.464       .  S
C296        H301   1.077       .  S
C297        C298   1.427       .  A
C297        C306   1.508       .  S
C298        C299   1.402       .  A
C298        H302   1.080       .  S
C299        C332   1.473       .  S
C300        H499   1.077       .  S
H303        C398   1.077       .  S
C304        C305   1.398       .  A
C304        C354   1.470       .  S
C305        H310   1.077       .  S
C306        C307   1.421       .  A
C307        C308   1.400       .  A
C307        H311   1.080       .  S
C308        C309   1.392       .  A
C308        C314   1.470       .  S
C309        H312   1.077       .  S
O313        C328   1.260       .  A
O313       Al517   1.914   1_554  S
C314        O324   1.268       .  A
C314        O315   1.264       .  A
O315       Al317   1.907       .  S
O316        C318   1.260       .  A
O316       Al317   1.912       .  S
Al317       O423   1.931       .  S
Al317       O425   1.892       .  S
Al317       O326   1.787       .  S
C318        C386   1.467       .  S
C318        O331   1.259       .  A
O319        C329   1.261       .  A
O319       Al321   1.932       .  S
O320        C333   1.268       .  A
O320       Al526   1.922   1_554  S
Al321       O411   1.914       .  S
Al321       O432   1.908       .  S
Al321       O331   1.894       .  S
Al321       O326   1.788       .  S
O322        C329   1.254       .  A
O322       Al330   1.883       .  S
O323        C332   1.254       .  A
O323       Al526   1.884   1_554  S
O324       Al330   1.923       .  S
O325        C332   1.261       .  A
O325       Al513   1.931   1_554  S
O326       Al330   1.782       .  S
O327        C328   1.258       .  A
O327       Al513   1.892   1_554  S
C328        C375   1.467       .  S
C329        C346   1.473       .  S
Al330       O418   1.922       .  S
Al330       O421   1.884       .  S
C333        C337   1.470       .  S
C333        O334   1.265       .  A
O334       Al517   1.908   1_554  S
C335        C336   1.388       .  A
C335        C340   1.398       .  A
C335        C373   1.470       .  S
C336        C337   1.392       .  A
C336        H537   1.077       .  S
C337        C338   1.400       .  A
C338        C339   1.421       .  A
C338        H342   1.080       .  S
C339        C340   1.425       .  A
C339        C348   1.508       .  S
C340        H343   1.077       .  S
H341        C434   1.077       .  S
C344        C345   1.384       .  A
C344        C349   1.395       .  A
C344        C369   1.464       .  S
C345        C346   1.392       .  A
C345        H350   1.077       .  S
C346        C347   1.402       .  A
C347        C348   1.427       .  A
C347        H351   1.080       .  S
C348        C349   1.421       .  A
C349        H352   1.077       .  S
O353        C368   1.266       .  A
O353       Al557   1.925   1_554  S
C354        O364   1.257       .  A
C354        O355   1.259       .  A
O355       Al357   1.905       .  S
O356        C358   1.265       .  A
O356       Al357   1.924       .  S
Al357       O463   1.904       .  S
Al357       O465   1.905       .  S
Al357       O366   1.780       .  S
C358        C384   1.473       .  S
C358        O371   1.263       .  A
O359        C369   1.261       .  A
O359       Al361   1.904       .  S
O360        C373   1.257       .  A
O360       Al566   1.911   1_554  S
Al361       O451   1.925       .  S
Al361       O472   1.907       .  S
Al361       O371   1.907       .  S
Al361       O366   1.781       .  S
O362        C369   1.266       .  A
O362       Al370   1.914       .  S
O363        C372   1.266       .  A
O363       Al566   1.915   1_554  S
O364       Al370   1.912       .  S
O365        C372   1.261       .  A
O365       Al553   1.904   1_554  S
O366       Al370   1.782       .  S
O367        C368   1.263       .  A
O367       Al553   1.905   1_554  S
C368        C377   1.473       .  S
Al370       O458   1.911       .  S
Al370       O461   1.915       .  S
C373        O374   1.259       .  A
O374       Al557   1.907   1_554  S
C375        C376   1.387       .  A
C375        C380   1.400       .  A
C376        C965   1.394       .  A
C376        H577   1.082       .  S
C377        C964   1.394       .  A
C377        C378   1.402       .  A
C378        C967   1.424   1_455  A
C378        H382   1.080       .  S
C379        C966   1.424       .  A
C379        C380   1.423       .  A
C379        C388   1.512       .  S
C380        H383   1.077       .  S
H381        C474   1.082       .  S
C384        C973   1.393       .  A
C384        C389   1.402       .  A
C385        C972   1.393       .  A
C385        C386   1.387       .  A
C385        H390   1.082       .  S
C386        C387   1.400       .  A
C387        C388   1.423       .  A
C387        H391   1.077       .  S
C388        C977   1.423       .  A
C389        C976   1.423   1_455  A
C389        H392   1.080       .  S
C393        C394   1.395       .  A
C393        C398   1.384   1_565  A
C393        C470   1.464       .  S
C394        H399   1.077       .  S
C395        C396   1.427       .  A
C395        C404   1.508       .  S
C396        C397   1.402       .  A
C396        H400   1.080       .  S
C397        C430   1.473       .  S
H401        C496   1.077       .  S
C402        C403   1.398       .  A
C402        C452   1.470       .  S
C403        H408   1.077       .  S
C404        C405   1.421       .  A
C405        C406   1.400       .  A
C405        H409   1.080       .  S
C406        C407   1.392       .  A
C406        C412   1.470       .  S
C407        H410   1.077       .  S
O411        C426   1.260       .  A
C412        O422   1.268       .  A
C412        O413   1.264       .  A
O413       Al415   1.907       .  S
O414        C416   1.260       .  A
O414       Al415   1.912       .  S
Al415       O521   1.931       .  S
Al415       O523   1.892       .  S
Al415       O424   1.787       .  S
C416        C484   1.467       .  S
C416        O429   1.259       .  A
O417        C427   1.261       .  A
O417       Al419   1.932       .  S
O418        C431   1.268       .  A
Al419       O509   1.914       .  S
Al419       O530   1.908       .  S
Al419       O429   1.894       .  S
Al419       O424   1.788       .  S
O420        C427   1.254       .  A
O420       Al428   1.883       .  S
O421        C430   1.254       .  A
O422       Al428   1.923       .  S
O423        C430   1.261       .  A
O424       Al428   1.782       .  S
O425        C426   1.258       .  A
C426        C473   1.467       .  S
C427        C444   1.473       .  S
Al428       O516   1.922       .  S
Al428       O519   1.884       .  S
C431        C435   1.470       .  S
C431        O432   1.265       .  A
C433        C434   1.388       .  A
C433        C438   1.398       .  A
C433        C471   1.470       .  S
C434        C435   1.392       .  A
C435        C436   1.400       .  A
C436        C437   1.421       .  A
C436        H440   1.080       .  S
C437        C438   1.425       .  A
C437        C446   1.508       .  S
C438        H441   1.077       .  S
H439        C532   1.077       .  S
C442        C443   1.384       .  A
C442        C447   1.395       .  A
C442        C467   1.464       .  S
C443        C444   1.392       .  A
C443        H448   1.077       .  S
C444        C445   1.402       .  A
C445        C446   1.427       .  A
C445        H449   1.080       .  S
C446        C447   1.421       .  A
C447        H450   1.077       .  S
O451        C466   1.266       .  A
C452        O462   1.257       .  A
C452        O453   1.259       .  A
O453       Al455   1.905       .  S
O454        C456   1.265       .  A
O454       Al455   1.924       .  S
Al455       O561   1.904       .  S
Al455       O563   1.905       .  S
Al455       O464   1.780       .  S
C456        C482   1.473       .  S
C456        O469   1.263       .  A
O457        C467   1.261       .  A
O457       Al459   1.904       .  S
O458        C471   1.257       .  A
Al459       O549   1.925       .  S
Al459       O570   1.907       .  S
Al459       O469   1.907       .  S
Al459       O464   1.781       .  S
O460        C467   1.266       .  A
O460       Al468   1.914       .  S
O461        C470   1.266       .  A
O462       Al468   1.912       .  S
O463        C470   1.261       .  A
O464       Al468   1.782       .  S
O465        C466   1.263       .  A
C466        C475   1.473       .  S
Al468       O556   1.911       .  S
Al468       O559   1.915       .  S
C471        O472   1.259       .  A
C473        C474   1.387       .  A
C473        C478   1.400       .  A
C474       C1063   1.394       .  A
C475       C1062   1.394       .  A
C475        C476   1.402       .  A
C476       C1065   1.424   1_455  A
C476        H480   1.080       .  S
C477       C1064   1.424       .  A
C477        C478   1.423       .  A
C477        C486   1.512       .  S
C478        H481   1.077       .  S
H479        C572   1.082       .  S
C482       C1071   1.393       .  A
C482        C487   1.402       .  A
C483       C1070   1.393       .  A
C483        C484   1.387       .  A
C483        H488   1.082       .  S
C484        C485   1.400       .  A
C485        C486   1.423       .  A
C485        H489   1.077       .  S
C486       C1075   1.423       .  A
C487       C1074   1.423   1_455  A
C487        H490   1.080       .  S
C491        C492   1.395       .  A
C491        C496   1.384   1_565  A
C491        C568   1.464       .  S
C492        H497   1.077       .  S
C493        C494   1.427       .  A
C493        C502   1.508       .  S
C494        C495   1.402       .  A
C494        H498   1.080       .  S
C495        C528   1.473       .  S
C500        C501   1.398       .  A
C500        C550   1.470       .  S
C501        H506   1.077       .  S
C502        C503   1.421       .  A
C503        C504   1.400       .  A
C503        H507   1.080       .  S
C504        C505   1.392       .  A
C504        C510   1.470       .  S
C505        H508   1.077       .  S
O509        C524   1.260       .  A
C510        O520   1.268       .  A
C510        O511   1.264       .  A
O511       Al513   1.907       .  S
O512        C514   1.260       .  A
O512       Al513   1.912       .  S
Al513       O522   1.787       .  S
C514        C582   1.467       .  S
C514        O527   1.259       .  A
O515        C525   1.261       .  A
O515       Al517   1.932       .  S
O516        C529   1.268       .  A
Al517       O527   1.894       .  S
Al517       O522   1.788       .  S
O518        C525   1.254       .  A
O518       Al526   1.883       .  S
O519        C528   1.254       .  A
O520       Al526   1.923       .  S
O521        C528   1.261       .  A
O522       Al526   1.782       .  S
O523        C524   1.258       .  A
C524        C571   1.467       .  S
C525        C542   1.473       .  S
C529        C533   1.470       .  S
C529        O530   1.265       .  A
C531        C532   1.388       .  A
C531        C536   1.398       .  A
C531        C569   1.470       .  S
C532        C533   1.392       .  A
C533        C534   1.400       .  A
C534        C535   1.421       .  A
C534        H538   1.080       .  S
C535        C536   1.425       .  A
C535        C544   1.508       .  S
C536        H539   1.077       .  S
C540        C541   1.384       .  A
C540        C545   1.395       .  A
C540        C565   1.464       .  S
C541        C542   1.392       .  A
C541        H546   1.077       .  S
C542        C543   1.402       .  A
C543        C544   1.427       .  A
C543        H547   1.080       .  S
C544        C545   1.421       .  A
C545        H548   1.077       .  S
O549        C564   1.266       .  A
C550        O560   1.257       .  A
C550        O551   1.259       .  A
O551       Al553   1.905       .  S
O552        C554   1.265       .  A
O552       Al553   1.924       .  S
Al553       O562   1.780       .  S
C554        C580   1.473       .  S
C554        O567   1.263       .  A
O555        C565   1.261       .  A
O555       Al557   1.904       .  S
O556        C569   1.257       .  A
Al557       O567   1.907       .  S
Al557       O562   1.781       .  S
O558        C565   1.266       .  A
O558       Al566   1.914       .  S
O559        C568   1.266       .  A
O560       Al566   1.912       .  S
O561        C568   1.261       .  A
O562       Al566   1.782       .  S
O563        C564   1.263       .  A
C564        C573   1.473       .  S
C569        O570   1.259       .  A
C571        C572   1.387       .  A
C571        C576   1.400       .  A
C572       C1161   1.394       .  A
C573       C1160   1.394       .  A
C573        C574   1.402       .  A
C574       C1163   1.424   1_455  A
C574        H578   1.080       .  S
C575       C1162   1.424       .  A
C575        C576   1.423       .  A
C575        C584   1.512       .  S
C576        H579   1.077       .  S
C580       C1169   1.393       .  A
C580        C585   1.402       .  A
C581       C1168   1.393       .  A
C581        C582   1.387       .  A
C581        H586   1.082       .  S
C582        C583   1.400       .  A
C583        C584   1.423       .  A
C583        H587   1.077       .  S
C584       C1173   1.423       .  A
C585       C1172   1.423   1_455  A
C585        H588   1.080       .  S
C589        C590   1.395       .  A
C589        C594   1.384       .  A
C589        C666   1.464       .  S
C590        C885   1.421       .  A
C590        H595   1.077       .  S
C591        C884   1.421       .  A
C591        C592   1.427   1_565  A
C591        C600   1.508       .  S
C592        C593   1.402       .  A
C592        H596   1.080       .  S
C593        C888   1.392       .  A
C593        C626   1.473       .  S
C594        C887   1.392       .  A
C594        H793   1.077       .  S
H597        C692   1.077       .  S
C598        C599   1.398       .  A
C598        C897   1.388       .  A
C598        C648   1.470       .  S
C599        C894   1.425       .  A
C599        H604   1.077       .  S
C600        C893   1.425       .  A
C600        C601   1.421   1_565  A
C601        C602   1.400       .  A
C601        H605   1.080       .  S
C602        C603   1.392   1_545  A
C602        C608   1.470       .  S
C603        C892   1.388       .  A
C603        H606   1.077       .  S
O607        C622   1.260       .  A
O607       Al811   1.914   1_554  S
C608        O618   1.268       .  A
C608        O609   1.264       .  A
O609       Al611   1.907       .  S
O610        C612   1.260       .  A
O610       Al611   1.912       .  S
Al611       O717   1.931       .  S
Al611       O719   1.892       .  S
Al611       O620   1.787       .  S
C612        C680   1.467       .  S
C612        O625   1.259       .  A
O613        C623   1.261       .  A
O613       Al615   1.932       .  S
O614        C627   1.268       .  A
O614       Al820   1.922   1_554  S
Al615       O705   1.914       .  S
Al615       O726   1.908       .  S
Al615       O625   1.894       .  S
Al615       O620   1.788       .  S
O616        C623   1.254       .  A
O616       Al624   1.883       .  S
O617        C626   1.254       .  A
O617       Al820   1.884   1_554  S
O618       Al624   1.923       .  S
O619        C626   1.261       .  A
O619       Al807   1.931   1_554  S
O620       Al624   1.782       .  S
O621        C622   1.258       .  A
O621       Al807   1.892   1_554  S
C622        C669   1.467       .  S
C623        C640   1.473       .  S
Al624       O712   1.922       .  S
Al624       O715   1.884       .  S
C627        C631   1.470       .  S
C627        O628   1.265       .  A
O628       Al811   1.908   1_554  S
C629        C630   1.388       .  A
C629        C634   1.398       .  A
C629        C667   1.470       .  S
C630        C631   1.392       .  A
C630        H831   1.077       .  S
C631        C632   1.400       .  A
C632        C633   1.421       .  A
C632        H636   1.080       .  S
C633        C634   1.425       .  A
C633        C642   1.508       .  S
C634        H637   1.077       .  S
H635        C728   1.077       .  S
C638        C639   1.384       .  A
C638        C643   1.395       .  A
C638        C663   1.464       .  S
C639        C640   1.392       .  A
C639        H644   1.077       .  S
C640        C641   1.402       .  A
C641        C642   1.427       .  A
C641        H645   1.080       .  S
C642        C643   1.421       .  A
C643        H646   1.077       .  S
O647        C662   1.266       .  A
O647       Al851   1.925   1_554  S
C648        O658   1.257       .  A
C648        O649   1.259       .  A
O649       Al651   1.905       .  S
O650        C652   1.265       .  A
O650       Al651   1.924       .  S
Al651       O757   1.904       .  S
Al651       O759   1.905       .  S
Al651       O660   1.780       .  S
C652        C678   1.473       .  S
C652        O665   1.263       .  A
O653        C663   1.261       .  A
O653       Al655   1.904       .  S
O654        C667   1.257       .  A
O654       Al860   1.911   1_554  S
Al655       O745   1.925       .  S
Al655       O766   1.907       .  S
Al655       O665   1.907       .  S
Al655       O660   1.781       .  S
O656        C663   1.266       .  A
O656       Al664   1.914       .  S
O657        C666   1.266       .  A
O657       Al860   1.915   1_554  S
O658       Al664   1.912       .  S
O659        C666   1.261       .  A
O659       Al847   1.904   1_554  S
O660       Al664   1.781       .  S
O661        C662   1.263       .  A
O661       Al847   1.905   1_554  S
C662        C671   1.473       .  S
Al664       O752   1.911       .  S
Al664       O755   1.915       .  S
C667        O668   1.259       .  A
O668       Al851   1.907   1_554  S
C669        C670   1.387   1_655  A
C669        C674   1.400       .  A
C670        H871   1.082       .  S
C671        C672   1.402       .  A
C672        H676   1.080       .  S
C673        C674   1.423       .  A
C673        C682   1.512       .  S
C674        H677   1.077       .  S
H675        C768   1.082       .  S
C678        C683   1.402       .  A
C679        C680   1.387   1_455  A
C679        H684   1.082       .  S
C680        C681   1.400       .  A
C681        C682   1.423       .  A
C681        H685   1.077       .  S
C683        H686   1.080       .  S
C687        C688   1.395       .  A
C687        C692   1.384       .  A
C687        C764   1.464       .  S
C688        C983   1.421       .  A
C688        H693   1.077       .  S
C689        C982   1.421       .  A
C689        C690   1.427   1_565  A
C689        C698   1.508       .  S
C690        C691   1.402       .  A
C690        H694   1.080       .  S
C691        C986   1.392       .  A
C691        C724   1.473       .  S
C692        C985   1.392       .  A
H695        C790   1.077       .  S
C696        C697   1.398       .  A
C696        C995   1.388       .  A
C696        C746   1.470       .  S
C697        C992   1.425       .  A
C697        H702   1.077       .  S
C698        C991   1.425       .  A
C698        C699   1.421   1_565  A
C699        C700   1.400       .  A
C699        H703   1.080       .  S
C700        C701   1.392   1_545  A
C700        C706   1.470       .  S
C701        C990   1.388       .  A
C701        H704   1.077       .  S
O705        C720   1.260       .  A
C706        O716   1.268       .  A
C706        O707   1.264       .  A
O707       Al709   1.907       .  S
O708        C710   1.260       .  A
O708       Al709   1.912       .  S
Al709       O815   1.931       .  S
Al709       O817   1.892       .  S
Al709       O718   1.787       .  S
C710        C778   1.467       .  S
C710        O723   1.259       .  A
O711        C721   1.261       .  A
O711       Al713   1.932       .  S
O712        C725   1.268       .  A
Al713       O803   1.914       .  S
Al713       O824   1.908       .  S
Al713       O723   1.894       .  S
Al713       O718   1.788       .  S
O714        C721   1.254       .  A
O714       Al722   1.883       .  S
O715        C724   1.254       .  A
O716       Al722   1.923       .  S
O717        C724   1.261       .  A
O718       Al722   1.782       .  S
O719        C720   1.258       .  A
C720        C767   1.467       .  S
C721        C738   1.473       .  S
Al722       O810   1.922       .  S
Al722       O813   1.884       .  S
C725        C729   1.470       .  S
C725        O726   1.265       .  A
C727        C728   1.388       .  A
C727        C732   1.398       .  A
C727        C765   1.470       .  S
C728        C729   1.392       .  A
C729        C730   1.400       .  A
C730        C731   1.421       .  A
C730        H734   1.080       .  S
C731        C732   1.425       .  A
C731        C740   1.508       .  S
C732        H735   1.077       .  S
H733        C826   1.077       .  S
C736        C737   1.384       .  A
C736        C741   1.395       .  A
C736        C761   1.464       .  S
C737        C738   1.392       .  A
C737        H742   1.077       .  S
C738        C739   1.402       .  A
C739        C740   1.427       .  A
C739        H743   1.080       .  S
C740        C741   1.421       .  A
C741        H744   1.077       .  S
O745        C760   1.266       .  A
C746        O756   1.257       .  A
C746        O747   1.259       .  A
O747       Al749   1.905       .  S
O748        C750   1.265       .  A
O748       Al749   1.924       .  S
Al749       O855   1.904       .  S
Al749       O857   1.905       .  S
Al749       O758   1.780       .  S
C750        C776   1.473       .  S
C750        O763   1.263       .  A
O751        C761   1.261       .  A
O751       Al753   1.904       .  S
O752        C765   1.257       .  A
Al753       O843   1.925       .  S
Al753       O864   1.907       .  S
Al753       O763   1.907       .  S
Al753       O758   1.781       .  S
O754        C761   1.266       .  A
O754       Al762   1.914       .  S
O755        C764   1.266       .  A
O756       Al762   1.912       .  S
O757        C764   1.261       .  A
O758       Al762   1.782       .  S
O759        C760   1.263       .  A
C760        C769   1.473       .  S
Al762       O850   1.911       .  S
Al762       O853   1.915       .  S
C765        O766   1.259       .  A
C767        C768   1.387   1_655  A
C767        C772   1.400       .  A
C769        C770   1.402       .  A
C770        H774   1.080       .  S
C771        C772   1.423       .  A
C771        C780   1.512       .  S
C772        H775   1.077       .  S
H773        C866   1.082       .  S
C776        C781   1.402       .  A
C777        C778   1.387   1_455  A
C777        H782   1.082       .  S
C778        C779   1.400       .  A
C779        C780   1.423       .  A
C779        H783   1.077       .  S
C781        H784   1.080       .  S
C785        C786   1.395       .  A
C785        C790   1.384       .  A
C785        C862   1.464       .  S
C786       C1081   1.421       .  A
C786        H791   1.077       .  S
C787       C1080   1.421       .  A
C787        C788   1.427   1_565  A
C787        C796   1.508       .  S
C788        C789   1.402       .  A
C788        H792   1.080       .  S
C789       C1084   1.392       .  A
C789        C822   1.473       .  S
C790       C1083   1.392       .  A
C794        C795   1.398       .  A
C794       C1093   1.388       .  A
C794        C844   1.470       .  S
C795       C1090   1.425       .  A
C795        H800   1.077       .  S
C796       C1089   1.425       .  A
C796        C797   1.421   1_565  A
C797        C798   1.400       .  A
C797        H801   1.080       .  S
C798        C799   1.392   1_545  A
C798        C804   1.470       .  S
C799       C1088   1.388       .  A
C799        H802   1.077       .  S
O803        C818   1.260       .  A
C804        O814   1.268       .  A
C804        O805   1.264       .  A
O805       Al807   1.907       .  S
O806        C808   1.260       .  A
O806       Al807   1.912       .  S
Al807       O816   1.787       .  S
C808        C876   1.467       .  S
C808        O821   1.259       .  A
O809        C819   1.261       .  A
O809       Al811   1.932       .  S
O810        C823   1.268       .  A
Al811       O821   1.894       .  S
Al811       O816   1.788       .  S
O812        C819   1.254       .  A
O812       Al820   1.883       .  S
O813        C822   1.254       .  A
O814       Al820   1.923       .  S
O815        C822   1.261       .  A
O816       Al820   1.782       .  S
O817        C818   1.258       .  A
C818        C865   1.467       .  S
C819        C836   1.473       .  S
C823        C827   1.470       .  S
C823        O824   1.265       .  A
C825        C826   1.388       .  A
C825        C830   1.398       .  A
C825        C863   1.470       .  S
C826        C827   1.392       .  A
C827        C828   1.400       .  A
C828        C829   1.421       .  A
C828        H832   1.080       .  S
C829        C830   1.425       .  A
C829        C838   1.508       .  S
C830        H833   1.077       .  S
C834        C835   1.384       .  A
C834        C839   1.395       .  A
C834        C859   1.464       .  S
C835        C836   1.392       .  A
C835        H840   1.077       .  S
C836        C837   1.402       .  A
C837        C838   1.427       .  A
C837        H841   1.080       .  S
C838        C839   1.421       .  A
C839        H842   1.077       .  S
O843        C858   1.266       .  A
C844        O854   1.257       .  A
C844        O845   1.259       .  A
O845       Al847   1.905       .  S
O846        C848   1.265       .  A
O846       Al847   1.924       .  S
Al847       O856   1.780       .  S
C848        C874   1.473       .  S
C848        O861   1.263       .  A
O849        C859   1.261       .  A
O849       Al851   1.904       .  S
O850        C863   1.257       .  A
Al851       O861   1.907       .  S
Al851       O856   1.781       .  S
O852        C859   1.266       .  A
O852       Al860   1.914       .  S
O853        C862   1.266       .  A
O854       Al860   1.912       .  S
O855        C862   1.261       .  A
O856       Al860   1.782       .  S
O857        C858   1.263       .  A
C858        C867   1.473       .  S
C863        O864   1.259       .  A
C865        C866   1.387   1_655  A
C865        C870   1.400       .  A
C867        C868   1.402       .  A
C868        H872   1.080       .  S
C869        C870   1.423       .  A
C869        C878   1.512       .  S
C870        H873   1.077       .  S
C874        C879   1.402       .  A
C875        C876   1.387   1_455  A
C875        H880   1.082       .  S
C876        C877   1.400       .  A
C877        C878   1.423       .  A
C877        H881   1.077       .  S
C879        H882   1.080       .  S
C883        C884   1.395       .  A
C883        C888   1.384   1_565  A
C883        C960   1.464       .  S
C884        H889   1.077       .  S
C885        C886   1.427       .  A
C885        C894   1.508       .  S
C886        C887   1.402       .  A
C886        H890   1.080       .  S
C887        C920   1.473       .  S
C888       H1087   1.077       .  S
H891        C986   1.077       .  S
C892        C893   1.398       .  A
C892        C942   1.470       .  S
C893        H898   1.077       .  S
C894        C895   1.421       .  A
C895        C896   1.400       .  A
C895        H899   1.080       .  S
C896        C897   1.392       .  A
C896        C902   1.470       .  S
C897        H900   1.077       .  S
O901        C916   1.260       .  A
O901      Al1105   1.914   1_554  S
C902        O912   1.268       .  A
C902        O903   1.264       .  A
O903       Al905   1.907       .  S
O904        C906   1.260       .  A
O904       Al905   1.912       .  S
Al905      O1011   1.931       .  S
Al905      O1013   1.892       .  S
Al905       O914   1.787       .  S
C906        C974   1.467       .  S
C906        O919   1.259       .  A
O907        C917   1.261       .  A
O907       Al909   1.932       .  S
O908        C921   1.268       .  A
O908      Al1114   1.922   1_554  S
Al909       O999   1.914       .  S
Al909      O1020   1.908       .  S
Al909       O919   1.894       .  S
Al909       O914   1.788       .  S
O910        C917   1.254       .  A
O910       Al918   1.883       .  S
O911        C920   1.254       .  A
O911      Al1114   1.884   1_554  S
O912       Al918   1.923       .  S
O913        C920   1.261       .  A
O913      Al1101   1.931   1_554  S
O914       Al918   1.782       .  S
O915        C916   1.258       .  A
O915      Al1101   1.892   1_554  S
C916        C963   1.467       .  S
C917        C934   1.473       .  S
Al918      O1006   1.922       .  S
Al918      O1009   1.884       .  S
C921        C925   1.470       .  S
C921        O922   1.265       .  A
O922      Al1105   1.908   1_554  S
C923        C924   1.388       .  A
C923        C928   1.398       .  A
C923        C961   1.470       .  S
C924        C925   1.392       .  A
C924       H1125   1.077       .  S
C925        C926   1.400       .  A
C926        C927   1.421       .  A
C926        H930   1.080       .  S
C927        C928   1.425       .  A
C927        C936   1.508       .  S
C928        H931   1.077       .  S
H929       C1022   1.077       .  S
C932        C933   1.384       .  A
C932        C937   1.395       .  A
C932        C957   1.464       .  S
C933        C934   1.392       .  A
C933        H938   1.077       .  S
C934        C935   1.402       .  A
C935        C936   1.427       .  A
C935        H939   1.080       .  S
C936        C937   1.421       .  A
C937        H940   1.077       .  S
O941        C956   1.266       .  A
O941      Al1145   1.925   1_554  S
C942        O952   1.257       .  A
C942        O943   1.259       .  A
O943       Al945   1.905       .  S
O944        C946   1.265       .  A
O944       Al945   1.924       .  S
Al945      O1051   1.904       .  S
Al945      O1053   1.905       .  S
Al945       O954   1.780       .  S
C946        C972   1.473       .  S
C946        O959   1.263       .  A
O947        C957   1.261       .  A
O947       Al949   1.904       .  S
O948        C961   1.257       .  A
O948      Al1154   1.911   1_554  S
Al949      O1039   1.925       .  S
Al949      O1060   1.907       .  S
Al949       O959   1.907       .  S
Al949       O954   1.781       .  S
O950        C957   1.266       .  A
O950       Al958   1.914       .  S
O951        C960   1.266       .  A
O951      Al1154   1.915   1_554  S
O952       Al958   1.912       .  S
O953        C960   1.261       .  A
O953      Al1141   1.904   1_554  S
O954       Al958   1.782       .  S
O955        C956   1.263       .  A
O955      Al1141   1.905   1_554  S
C956        C965   1.473       .  S
Al958      O1046   1.911       .  S
Al958      O1049   1.915       .  S
C961        O962   1.259       .  A
O962      Al1145   1.907   1_554  S
C963        C964   1.387   1_655  A
C963        C968   1.400       .  A
C964       H1165   1.082       .  S
C965        C966   1.402       .  A
C966        H970   1.080       .  S
C967        C968   1.423       .  A
C967        C976   1.512       .  S
C968        H971   1.077       .  S
H969       C1062   1.082       .  S
C972        C977   1.402       .  A
C973        C974   1.387   1_455  A
C973        H978   1.082       .  S
C974        C975   1.400       .  A
C975        C976   1.423       .  A
C975        H979   1.077       .  S
C977        H980   1.080       .  S
C981        C982   1.395       .  A
C981        C986   1.384   1_565  A
C981       C1058   1.464       .  S
C982        H987   1.077       .  S
C983        C984   1.427       .  A
C983        C992   1.508       .  S
C984        C985   1.402       .  A
C984        H988   1.080       .  S
C985       C1018   1.473       .  S
H989       C1084   1.077       .  S
C990        C991   1.398       .  A
C990       C1040   1.470       .  S
C991        H996   1.077       .  S
C992        C993   1.421       .  A
C993        C994   1.400       .  A
C993        H997   1.080       .  S
C994        C995   1.392       .  A
C994       C1000   1.470       .  S
C995        H998   1.077       .  S
O999       C1014   1.260       .  A
C1000      O1010   1.268       .  A
C1000      O1001   1.264       .  A
O1001     Al1003   1.907       .  S
O1002      C1004   1.260       .  A
O1002     Al1003   1.912       .  S
Al1003     O1109   1.931       .  S
Al1003     O1111   1.892       .  S
Al1003     O1012   1.787       .  S
C1004      C1072   1.467       .  S
C1004      O1017   1.259       .  A
O1005      C1015   1.261       .  A
O1005     Al1007   1.932       .  S
O1006      C1019   1.268       .  A
Al1007     O1097   1.914       .  S
Al1007     O1118   1.908       .  S
Al1007     O1017   1.894       .  S
Al1007     O1012   1.788       .  S
O1008      C1015   1.254       .  A
O1008     Al1016   1.883       .  S
O1009      C1018   1.254       .  A
O1010     Al1016   1.923       .  S
O1011      C1018   1.261       .  A
O1012     Al1016   1.782       .  S
O1013      C1014   1.258       .  A
C1014      C1061   1.467       .  S
C1015      C1032   1.473       .  S
Al1016     O1104   1.922       .  S
Al1016     O1107   1.884       .  S
C1019      C1023   1.470       .  S
C1019      O1020   1.265       .  A
C1021      C1022   1.388       .  A
C1021      C1026   1.398       .  A
C1021      C1059   1.470       .  S
C1022      C1023   1.392       .  A
C1023      C1024   1.400       .  A
C1024      C1025   1.421       .  A
C1024      H1028   1.080       .  S
C1025      C1026   1.425       .  A
C1025      C1034   1.508       .  S
C1026      H1029   1.077       .  S
H1027      C1120   1.077       .  S
C1030      C1031   1.384       .  A
C1030      C1035   1.395       .  A
C1030      C1055   1.464       .  S
C1031      C1032   1.392       .  A
C1031      H1036   1.077       .  S
C1032      C1033   1.402       .  A
C1033      C1034   1.427       .  A
C1033      H1037   1.080       .  S
C1034      C1035   1.421       .  A
C1035      H1038   1.077       .  S
O1039      C1054   1.266       .  A
C1040      O1050   1.257       .  A
C1040      O1041   1.259       .  A
O1041     Al1043   1.905       .  S
O1042      C1044   1.265       .  A
O1042     Al1043   1.924       .  S
Al1043     O1149   1.904       .  S
Al1043     O1151   1.905       .  S
Al1043     O1052   1.780       .  S
C1044      C1070   1.473       .  S
C1044      O1057   1.263       .  A
O1045      C1055   1.261       .  A
O1045     Al1047   1.904       .  S
O1046      C1059   1.257       .  A
Al1047     O1137   1.925       .  S
Al1047     O1158   1.907       .  S
Al1047     O1057   1.907       .  S
Al1047     O1052   1.781       .  S
O1048      C1055   1.266       .  A
O1048     Al1056   1.914       .  S
O1049      C1058   1.266       .  A
O1050     Al1056   1.912       .  S
O1051      C1058   1.261       .  A
O1052     Al1056   1.782       .  S
O1053      C1054   1.263       .  A
C1054      C1063   1.473       .  S
Al1056     O1144   1.911       .  S
Al1056     O1147   1.915       .  S
C1059      O1060   1.259       .  A
C1061      C1062   1.387   1_655  A
C1061      C1066   1.400       .  A
C1063      C1064   1.402       .  A
C1064      H1068   1.080       .  S
C1065      C1066   1.423       .  A
C1065      C1074   1.512       .  S
C1066      H1069   1.077       .  S
H1067      C1160   1.082       .  S
C1070      C1075   1.402       .  A
C1071      C1072   1.387   1_455  A
C1071      H1076   1.082       .  S
C1072      C1073   1.400       .  A
C1073      C1074   1.423       .  A
C1073      H1077   1.077       .  S
C1075      H1078   1.080       .  S
C1079      C1080   1.395       .  A
C1079      C1084   1.384   1_565  A
C1079      C1156   1.464       .  S
C1080      H1085   1.077       .  S
C1081      C1082   1.427       .  A
C1081      C1090   1.508       .  S
C1082      C1083   1.402       .  A
C1082      H1086   1.080       .  S
C1083      C1116   1.473       .  S
C1088      C1089   1.398       .  A
C1088      C1138   1.470       .  S
C1089      H1094   1.077       .  S
C1090      C1091   1.421       .  A
C1091      C1092   1.400       .  A
C1091      H1095   1.080       .  S
C1092      C1093   1.392       .  A
C1092      C1098   1.470       .  S
C1093      H1096   1.077       .  S
O1097      C1112   1.260       .  A
C1098      O1108   1.268       .  A
C1098      O1099   1.264       .  A
O1099     Al1101   1.907       .  S
O1100      C1102   1.260       .  A
O1100     Al1101   1.912       .  S
Al1101     O1110   1.787       .  S
C1102      C1170   1.467       .  S
C1102      O1115   1.259       .  A
O1103      C1113   1.261       .  A
O1103     Al1105   1.932       .  S
O1104      C1117   1.268       .  A
Al1105     O1115   1.894       .  S
Al1105     O1110   1.788       .  S
O1106      C1113   1.254       .  A
O1106     Al1114   1.883       .  S
O1107      C1116   1.254       .  A
O1108     Al1114   1.923       .  S
O1109      C1116   1.261       .  A
O1110     Al1114   1.782       .  S
O1111      C1112   1.258       .  A
C1112      C1159   1.467       .  S
C1113      C1130   1.473       .  S
C1117      C1121   1.470       .  S
C1117      O1118   1.265       .  A
C1119      C1120   1.388       .  A
C1119      C1124   1.398       .  A
C1119      C1157   1.470       .  S
C1120      C1121   1.392       .  A
C1121      C1122   1.400       .  A
C1122      C1123   1.421       .  A
C1122      H1126   1.080       .  S
C1123      C1124   1.425       .  A
C1123      C1132   1.508       .  S
C1124      H1127   1.077       .  S
C1128      C1129   1.384       .  A
C1128      C1133   1.395       .  A
C1128      C1153   1.464       .  S
C1129      C1130   1.392       .  A
C1129      H1134   1.077       .  S
C1130      C1131   1.402       .  A
C1131      C1132   1.427       .  A
C1131      H1135   1.080       .  S
C1132      C1133   1.421       .  A
C1133      H1136   1.077       .  S
O1137      C1152   1.266       .  A
C1138      O1148   1.257       .  A
C1138      O1139   1.259       .  A
O1139     Al1141   1.905       .  S
O1140      C1142   1.265       .  A
O1140     Al1141   1.924       .  S
Al1141     O1150   1.780       .  S
C1142      C1168   1.473       .  S
C1142      O1155   1.263       .  A
O1143      C1153   1.261       .  A
O1143     Al1145   1.904       .  S
O1144      C1157   1.257       .  A
Al1145     O1155   1.907       .  S
Al1145     O1150   1.781       .  S
O1146      C1153   1.266       .  A
O1146     Al1154   1.914       .  S
O1147      C1156   1.266       .  A
O1148     Al1154   1.912       .  S
O1149      C1156   1.261       .  A
O1150     Al1154   1.782       .  S
O1151      C1152   1.263       .  A
C1152      C1161   1.473       .  S
C1157      O1158   1.259       .  A
C1159      C1160   1.387   1_655  A
C1159      C1164   1.400       .  A
C1161      C1162   1.402       .  A
C1162      H1166   1.080       .  S
C1163      C1164   1.423       .  A
C1163      C1172   1.512       .  S
C1164      H1167   1.077       .  S
C1168      C1173   1.402       .  A
C1169      C1170   1.387   1_455  A
C1169      H1174   1.082       .  S
C1170      C1171   1.400       .  A
C1171      C1172   1.423       .  A
C1171      H1175   1.077       .  S
C1173      H1176   1.080       .  S
