geometry optimzed in LAMMPS
_audit_creation_date              2020-12-01 
_audit_creation_method            'lammps2cif' 
_symmetry_space_group_name_H-M    'P1' 
_symmetry_Int_Tables_number       1 
_symmetry_cell_setting            triclinic 
loop_ 
_symmetry_equiv_pos_as_xyz 
  x,y,z 
_cell_length_a                    48.54481515 
_cell_length_b                    55.072421165153024 
_cell_length_c                    31.69697906493011 
_cell_angle_alpha                 89.98743650685307 
_cell_angle_beta                  89.99680181352363 
_cell_angle_gamma                 122.77776227175003 
loop_ 
_atom_site_label 
_atom_site_type_symbol 
_atom_site_fract_x 
_atom_site_fract_y 
_atom_site_fract_z 
_atom_site_charge 
C1          C  0.08109445  0.16041459  0.74563139     0.03800
C2          C  0.07368237  0.14524787  0.78398544    -0.12300
C3          C  0.05732629  0.11510944  0.78416870     0.01300
C4          C  0.04838135  0.09990823  0.74598949    -0.10800
C5          C  0.05582369  0.11475315  0.70757681     0.03800
C6          C  0.07197362  0.14491950  0.70740343    -0.10300
H7          H  0.08056355  0.15685775  0.81367662     0.09400
H8          H  0.03630834  0.07659816  0.74614727     0.07000
H9          H  0.07820888  0.15635372  0.67758189     0.06800
C10         C  0.07106667  0.38196055  0.74803425     0.03800
C11         C  0.06189930  0.38908056  0.78584867    -0.12300
C12         C  0.04568799  0.40373553  0.78497392     0.01300
C13         C  0.03858653  0.41139967  0.74619654    -0.10800
C14         C  0.04768837  0.40444821  0.70833426     0.03800
C15         C  0.06371203  0.38963646  0.70929134    -0.10300
H16         H  0.06766739  0.38348783  0.81592490     0.09400
H17         H  0.02680410  0.42342627  0.74551606     0.07000
H18         H  0.07143316  0.38495819  0.67996765     0.06800
C19         C  0.19863758  0.33312844  0.74859167     0.03800
C20         C  0.17980248  0.34548306  0.74900590    -0.12300
C21         C  0.14544317  0.32807256  0.74833989     0.01300
C22         C  0.12986743  0.29792979  0.74709161    -0.10800
C23         C  0.14823351  0.28512094  0.74686235     0.03800
C24         C  0.18262190  0.30289307  0.74763744    -0.10300
H25         H  0.19192113  0.36876818  0.74870694     0.09400
H26         H  0.10335099  0.28438457  0.74749469     0.07000
H27         H  0.19693774  0.29316484  0.74743424     0.06800
C28         C  0.34024902  0.40748282  0.74698150     0.03800
C29         C  0.35779475  0.41728351  0.78511738    -0.12300
C30         C  0.39201839  0.43514672  0.78474424     0.01300
C31         C  0.40890713  0.44353384  0.74640686    -0.10800
C32         C  0.39176183  0.43402067  0.70832412     0.03800
C33         C  0.35751501  0.41594017  0.70850806    -0.10300
H34         H  0.34490720  0.41063012  0.81501193     0.09400
H35         H  0.43544563  0.45738042  0.74621428     0.07000
H36         H  0.34435295  0.40876214  0.67885102     0.06800
Zr37       Zr  0.03768531  0.50325905  0.07934929     2.17500
O38         O  0.50377538  0.48947051  0.14260443    -0.50600
O39         O  0.08978218  0.02744373  0.11599002    -0.73800
O40         O  0.03352843  0.46243040  0.11518272    -0.80600
O41         O  0.03440536  0.07067268  0.06547616    -0.82400
O42         O  0.02953154  0.43050564  0.06604178    -0.78000
O43         O  0.03376694  0.04019732  0.11471780    -0.89600
O44         O  0.13073731  0.04550868  0.06741587    -0.75600
O45         O  0.07033395  0.49165063  0.03897556    -0.85100
O46         O  0.07317527  0.04530272  0.03873441    -0.84800
O47         O  0.99928439  0.46168277  0.03861496    -0.71500
O48         O  0.00248632  0.01184240  0.03772684    -0.83700
Zr49       Zr  0.03366082  0.00136696  0.91354987     2.26400
Zr50       Zr  0.03253017  0.45099913  0.99657700     2.06300
Zr51       Zr  0.03838329  0.05355771  0.99602547     2.10000
Zr52       Zr  0.10547793  0.03354807  0.99807448     1.78800
O53         O  0.99585057  0.06417561  0.99148640    -0.92500
O54         O  0.14061721  0.01454564  0.99938609    -0.40300
O55         O  0.07172704  0.04280759  0.95454931    -0.76900
O56         O  0.06897302  0.49275953  0.95497608    -0.95600
O57         O  0.99790730  0.45941316  0.95403574    -0.88900
O58         O  0.00087978  0.01279225  0.95408512    -0.91700
C59         C  0.12004689  0.04108227  0.10538878     1.02000
C60         C  0.03308039  0.06224174  0.10366784     1.15000
C61         C  0.03043291  0.43866775  0.10425346     1.05700
O62         O  0.07276827  0.43756237  0.99707679    -0.93900
O63         O  0.03375203  0.43264319  0.92684681    -0.89600
O64         O  0.03260754  0.46218220  0.87747577    -0.82800
C65         C  0.03340442  0.44020752  0.88856603     1.12400
O66         O  0.43108050  0.45628514  0.05792267    -0.95900
Zr67       Zr  0.46559849  0.47095468  0.99513299     1.88900
O68         O  0.48171546  0.47801695  0.87675416    -0.72500
O69         O  0.48599996  0.40111839  0.99392755    -0.51800
O70         O  0.42919542  0.41850923  0.99526850    -0.96400
O71         O  0.42872402  0.48819320  0.99584546    -0.53700
O72         O  0.44072158  0.45949160  0.92544630    -0.73000
C73         C  0.45145495  0.46425555  0.88743514     0.99300
O74         O  0.07059364  0.01719462  0.85291052    -0.61800
O75         O  0.08279958  0.10429566  0.99824485    -0.56600
O76         O  0.03831426  0.04208903  0.87718085    -0.93300
O77         O  0.04417155  0.07475362  0.92634101    -0.91800
O78         O  0.14288801  0.08583409  0.99734866    -0.92100
O79         O  0.14236534  0.04960622  0.93771079    -0.90900
C80         C  0.04275820  0.06635209  0.88813375     1.18200
H81         H  0.08681247  0.06180541  0.05658361     0.34100
H82         H  0.08193363  0.48869645  0.93672824     0.45000
H83         H  0.98836581  0.01752551  0.93611017     0.38500
H84         H  0.48525522  0.44569224  0.05711590     0.35000
H85         H  0.16265810  0.03136744  0.00650158     0.26800
H86         H  0.49520335  0.38946977  0.00159244     0.32700
H87         H  0.40831484  0.41460243  0.98335132     0.38600
H88         H  0.16387548  0.08928984  0.00810344     0.33100
H89         H  0.07180380  0.11486732  0.00270551     0.31900
H90         H  0.00791198  0.08550352  0.98986732     0.33600
H91         H  0.40830922  0.47257444  0.98241092     0.32600
H92         H  0.13014604  0.05183874  0.91465694     0.36600
H93         H  0.08576543  0.03832507  0.85630600     0.29300
H94         H  0.51745087  0.48952119  0.16583463     0.33600
H95         H  0.40835312  0.44286435  0.04796895     0.36400
H96         H  0.09441183  0.10663016  0.02508694     0.29000
H97         H  0.08469747  0.00958449  0.85794959     0.41900
H98         H  0.08706937  0.44797315  0.02151570     0.31900
H99         H  0.13371099  0.50213753  0.02475556     0.39600
H100        H  0.43804042  0.00417975  0.97502351     0.31400
H101        H  0.47213678  0.39906875  0.01829801     0.31500
H102        H  0.48620274  0.46890663  0.13855676     0.31700
Zr103      Zr  0.03342231  0.00071345  0.57925369     2.17500
O104        O  0.06734187  0.01413717  0.64244516    -0.50600
O105        O  0.48138944  0.47682092  0.61603435    -0.73800
O106        O  0.03795567  0.04169543  0.61507773    -0.80600
O107        O  0.03645073  0.43315925  0.56536562    -0.82400
O108        O  0.04136042  0.07340335  0.56594577    -0.78000
O109        O  0.03654924  0.46335171  0.61463249    -0.89600
O110        O  0.44040447  0.45853851  0.56750499    -0.75600
O111        O  0.00065840  0.01222302  0.53891796    -0.85100
O112        O  0.99790887  0.45866226  0.53870765    -0.84800
O113        O  0.07166241  0.04233902  0.53845331    -0.71500
O114        O  0.06868578  0.49219452  0.53768343    -0.83700
Zr115      Zr  0.03730981  0.50267246  0.41352410     2.26400
Zr116      Zr  0.03830548  0.05293422  0.49646024     2.06300
Zr117      Zr  0.03272918  0.45049383  0.49594671     2.10000
Zr118      Zr  0.46551690  0.47030689  0.49806873     1.78800
O119        O  0.07519463  0.43984482  0.49065319    -0.92500
O120        O  0.43017754  0.48909126  0.49914881    -0.40300
O121        O  0.99931350  0.46116158  0.45447880    -0.76900
O122        O  0.00189513  0.01115192  0.45491798    -0.95600
O123        O  0.07305677  0.04465904  0.45393784    -0.88900
O124        O  0.07015377  0.49132794  0.45407099    -0.91700
C125        C  0.45112051  0.46308834  0.60546460     1.02000
C126        C  0.03736979  0.44137755  0.60358533     1.15000
C127        C  0.04075725  0.06534658  0.60415388     1.05700
O128        O  0.99784152  0.06610919  0.49722761    -0.93900
O129        O  0.03692109  0.07129135  0.42676857    -0.89600
O130        O  0.03839464  0.04190363  0.37745934    -0.82800
C131        C  0.03740545  0.06378979  0.38849697     1.12400
O132        O  0.14012745  0.04855762  0.55768714    -0.95900
Zr133      Zr  0.10542339  0.03316154  0.49504687     1.88900
O134        O  0.08923581  0.02576607  0.37676947    -0.72500
O135        O  0.08453708  0.10293382  0.49349216    -0.51800
O136        O  0.14180342  0.08561235  0.49457674    -0.96400
O137        O  0.14235089  0.01598943  0.49632090    -0.53700
O138        O  0.13024994  0.04412037  0.42539462    -0.73000
C139        C  0.11948070  0.03929429  0.38741901     0.99300
O140        O  0.50049467  0.48703812  0.35281506    -0.61800
O141        O  0.48836344  0.39974373  0.49810878    -0.56600
O142        O  0.03267383  0.46197015  0.37711206    -0.93300
O143        O  0.02696607  0.42934849  0.42626625    -0.91800
O144        O  0.42824664  0.41799441  0.49732746    -0.92100
O145        O  0.42850613  0.45392822  0.43784199    -0.90900
C146        C  0.02832843  0.43773808  0.38806243     1.18200
H147        H  0.48428777  0.44216395  0.55658745     0.34100
H148        H  0.48889152  0.01516865  0.43667536     0.45000
H149        H  0.08268214  0.48660237  0.43611280     0.38500
H150        H  0.08568736  0.05835474  0.55690569     0.35000
H151        H  0.40845966  0.47250159  0.50793791     0.26800
H152        H  0.07509612  0.11447660  0.50060749     0.32700
H153        H  0.16213813  0.08951891  0.48083722     0.38600
H154        H  0.40740966  0.41443672  0.50886049     0.33100
H155        H  0.49923177  0.38928091  0.50448654     0.31900
H156        H  0.06311144  0.41849983  0.48960535     0.33600
H157        H  0.16270484  0.03148946  0.48260184     0.32600
H158        H  0.44042457  0.45104076  0.41508199     0.36600
H159        H  0.48551033  0.46585753  0.35584659     0.29300
H160        H  0.05383128  0.01435161  0.66567807     0.33600
H161        H  0.16287046  0.06150655  0.54743688     0.36400
H162        H  0.47582840  0.39765933  0.52397091     0.29000
H163        H  0.48617802  0.49439531  0.35814067     0.41900
H164        H  0.48393142  0.05601523  0.52211325     0.31900
H165        H  0.43782158  0.00236255  0.52353057     0.39600
H166        H  0.13283272  0.49969849  0.47609146     0.31400
H167        H  0.09829320  0.10524023  0.51812629     0.31500
H168        H  0.08516181  0.03461095  0.63830763     0.31700
C169        C  0.23060362  0.09639436  0.24723125     0.03800
C170        C  0.21302734  0.08616274  0.28528119    -0.12300
C171        C  0.17884000  0.06808013  0.28477299     0.01300
C172        C  0.16201308  0.05985921  0.24639742    -0.10800
C173        C  0.17921019  0.06979204  0.20839198     0.03800
C174        C  0.21341857  0.08814031  0.20871511    -0.10300
H175        H  0.22585238  0.09267135  0.31522107     0.09400
H176        H  0.13549034  0.04584981  0.24611911     0.07000
H177        H  0.22662274  0.09564863  0.17911574     0.06800
C178        C  0.00010634  0.12241419  0.24794421     0.03800
C179        C  0.00726210  0.11460116  0.20917467    -0.12300
C180        C  0.02294487  0.09948649  0.20819391     0.01300
C181        C  0.03199186  0.09245774  0.24603675    -0.10800
C182        C  0.02515224  0.10031166  0.28482846     0.03800
C183        C  0.00924323  0.11522981  0.28573117    -0.10300
H184        H  0.99956269  0.11933604  0.17987876     0.09400
H185        H  0.04351014  0.08020953  0.24533430     0.07000
H186        H  0.00360618  0.12091788  0.31581749     0.06800
C187        C  0.37212752  0.17084752  0.24861317     0.03800
C188        C  0.38808389  0.20106993  0.24768803    -0.12300
C189        C  0.42245018  0.21885870  0.24697967     0.01300
C190        C  0.44087672  0.20611643  0.24734520    -0.10800
C191        C  0.42537176  0.17598461  0.24851414     0.03800
C192        C  0.39101040  0.15853041  0.24906641    -0.10300
H193        H  0.37375377  0.21078557  0.24746777     0.09400
H194        H  0.46738882  0.21971628  0.24783135     0.07000
H195        H  0.37893481  0.13525113  0.24870250     0.06800
C196        C  0.48981457  0.34352273  0.24576678     0.03800
C197        C  0.49889131  0.35901208  0.20752586    -0.12300
C198        C  0.01508727  0.38917598  0.20767291     0.01300
C199        C  0.02258719  0.40403103  0.24605996    -0.10800
C200        C  0.01369851  0.38884955  0.28426035     0.03800
C201        C  0.49732511  0.35870290  0.28411932    -0.10300
H202        H  0.49259098  0.34757973  0.17770842     0.09400
H203        H  0.03468406  0.42734337  0.24618284     0.07000
H204        H  0.49048840  0.34710356  0.31382782     0.06800
C205        C  0.42867415  0.26474939  0.27236102    -0.12600
C206        C  0.43921429  0.25075223  0.24612941     0.09500
C207        C  0.46621389  0.26745982  0.21942660    -0.12600
C208        C  0.48244132  0.29753688  0.21908285    -0.12600
C209        C  0.47217469  0.31156170  0.24566349     0.09500
C210        C  0.44508295  0.29486418  0.27226536    -0.12600
H211        H  0.40808753  0.25242782  0.29348176     0.13500
H212        H  0.47466683  0.25722290  0.19859487     0.13500
H213        H  0.00336958  0.30988924  0.19848332     0.13500
H214        H  0.43644781  0.30510689  0.29277912     0.13500
C215        C  0.45461050  0.12653800  0.27598108    -0.12600
C216        C  0.48162795  0.13671765  0.24893858     0.09500
C217        C  0.99034851  0.16014527  0.22217838    -0.12600
C218        C  0.47232421  0.17312048  0.22238278    -0.12600
C219        C  0.44501738  0.16270365  0.24902590     0.09500
C220        C  0.43640539  0.13932712  0.27590581    -0.12600
H221        H  0.44721482  0.10832952  0.29663947     0.13500
H222        H  0.01117623  0.16844963  0.20119202     0.13500
H223        H  0.47936611  0.19096489  0.20112206     0.13500
H224        H  0.41567807  0.13104304  0.29705975     0.13500
C225        C  0.28287833  0.14047426  0.22240954    -0.12600
C226        C  0.26678645  0.11563882  0.24781926     0.09500
C227        C  0.28547073  0.10927705  0.27387642    -0.12600
C228        C  0.31960959  0.12726002  0.27425835    -0.12600
C229        C  0.33579535  0.15207138  0.24872660     0.09500
C230        C  0.31703821  0.15856016  0.22294030    -0.12600
H231        H  0.26899541  0.14599420  0.20234231     0.13500
H232        H  0.27366367  0.09016479  0.29358355     0.13500
H233        H  0.33335486  0.12186083  0.29480506     0.13500
H234        H  0.32880305  0.17736098  0.20262301     0.13500
C235        C  0.01988481  0.40426152  0.32341419    -0.12600
C236        C  0.02419708  0.41857904  0.35445044    -0.14100
C237        C  0.14294539  0.04991006  0.35390044    -0.12600
C238        C  0.16058008  0.05843137  0.32346878    -0.14100
C239        C  0.03202041  0.09094128  0.32367222    -0.12600
C240        C  0.03565977  0.08036896  0.35483174    -0.14100
C241        C  0.02216212  0.40495107  0.16863363    -0.12600
C242        C  0.02679315  0.41959458  0.13782828    -0.14100
C243        C  0.02759583  0.08925024  0.16863196    -0.12600
C244        C  0.03044757  0.07836715  0.13726869    -0.14100
C245        C  0.14360943  0.05235334  0.13889893    -0.12600
C246        C  0.16127216  0.06099123  0.16934713    -0.14100
C247        C  0.42756125  0.45177019  0.63898415    -0.12600
C248        C  0.40981034  0.44299215  0.66935385    -0.14100
C249        C  0.42792915  0.45327138  0.85392167    -0.12600
C250        C  0.41025549  0.44460767  0.82350583    -0.14100
C251        C  0.25123872  0.37663856  0.77431989    -0.12600
C252        C  0.23498669  0.35189685  0.74866095     0.09500
C253        C  0.25369058  0.34552132  0.72257299    -0.12600
C254        C  0.28785500  0.36363800  0.72186536    -0.12600
C255        C  0.30402686  0.38836703  0.74746875     0.09500
C256        C  0.28539272  0.39463153  0.77380951    -0.12600
H257        H  0.23753188  0.38196605  0.79506621     0.13500
H258        H  0.24187061  0.32678152  0.70215462     0.13500
H259        H  0.30168532  0.35818907  0.70156772     0.13500
H260        H  0.29725571  0.41365532  0.79368110     0.13500
C261        C  0.04272007  0.41442420  0.66872898    -0.12600
C262        C  0.03979676  0.42516579  0.63724357    -0.14100
C263        C  0.03873608  0.41301722  0.82381772    -0.12600
C264        C  0.03508727  0.42358444  0.85495589    -0.14100
C265        C  0.08083962  0.34433173  0.72192950    -0.12600
C266        C  0.08951763  0.36763369  0.74892405     0.09500
C267        C  0.11638701  0.37759002  0.77614810    -0.12600
C268        C  0.13446672  0.36468382  0.77603849    -0.12600
C269        C  0.12588993  0.34143403  0.74891871     0.09500
C270        C  0.09874473  0.33125121  0.72207991    -0.12600
H271        H  0.06011011  0.33618176  0.70081835     0.13500
H272        H  0.12375735  0.39570019  0.79698968     0.13500
H273        H  0.15507791  0.37278205  0.79733946     0.13500
H274        H  0.09173766  0.31350693  0.70064420     0.13500
C275        C  0.04881331  0.09898479  0.66854117    -0.12600
C276        C  0.04431084  0.08438503  0.63773026    -0.14100
C277        C  0.04692850  0.08551160  0.85449489    -0.12600
C278        C  0.05120799  0.09974880  0.82336637    -0.14100
C279        C  0.08810640  0.20634425  0.71930868    -0.12600
C280        C  0.09863776  0.19237080  0.74555388     0.09500
C281        C  0.12584110  0.20910986  0.77195012    -0.12600
C282        C  0.14214019  0.23922013  0.77211499    -0.12600
C283        C  0.13140856  0.25319160  0.74613062     0.09500
C284        C  0.10422995  0.23642106  0.71971536    -0.12600
H285        H  0.06706831  0.19394987  0.69890194     0.13500
H286        H  0.13464917  0.19890166  0.79224747     0.13500
H287        H  0.16282545  0.25155783  0.79307098     0.13500
H288        H  0.09558859  0.24660474  0.69908653     0.13500
C289        C  0.08112225  0.66041983  0.74562667     0.03800
C290        C  0.07370981  0.64525501  0.78398308    -0.12300
C291        C  0.05733644  0.61511497  0.78417238     0.01300
C292        C  0.04837625  0.59991015  0.74599547    -0.10800
C293        C  0.05582336  0.61475279  0.70757970     0.03800
C294        C  0.07199036  0.64492089  0.70740141    -0.10300
H295        H  0.08059962  0.65686733  0.81367228     0.09400
H296        H  0.03628834  0.57659864  0.74615733     0.07000
H297        H  0.07822603  0.65635292  0.67757794     0.06800
C298        C  0.07105320  0.88195268  0.74803698     0.03800
C299        C  0.06187698  0.88906171  0.78585368    -0.12300
C300        C  0.04568232  0.90373124  0.78498277     0.01300
C301        C  0.03860399  0.91141749  0.74620824    -0.10800
C302        C  0.04771097  0.90447211  0.70834517     0.03800
C303        C  0.06372040  0.88964867  0.70929737    -0.10300
H304        H  0.06763109  0.88345397  0.81592751     0.09400
H305        H  0.02683396  0.92345460  0.74553115     0.07000
H306        H  0.07144790  0.88497671  0.67997353     0.06800
C307        C  0.19863493  0.83313507  0.74861648     0.03800
C308        C  0.17980270  0.84549143  0.74901102    -0.12300
C309        C  0.14544336  0.82808124  0.74832624     0.01300
C310        C  0.12986659  0.79793751  0.74708220    -0.10800
C311        C  0.14823179  0.78512744  0.74687974     0.03800
C312        C  0.18261955  0.80290010  0.74767285    -0.10300
H313        H  0.19192463  0.86877695  0.74870844     0.09400
H314        H  0.10335014  0.78439269  0.74747142     0.07000
H315        H  0.19693713  0.79317342  0.74748266     0.06800
C316        C  0.34024603  0.90744997  0.74696891     0.03800
C317        C  0.35779273  0.91723679  0.78510516    -0.12300
C318        C  0.39201709  0.93508499  0.78473252     0.01300
C319        C  0.40890728  0.94346588  0.74639625    -0.10800
C320        C  0.39176167  0.93396437  0.70831271     0.03800
C321        C  0.35751300  0.91590253  0.70849555    -0.10300
H322        H  0.34490494  0.91058785  0.81499980     0.09400
H323        H  0.43544661  0.95730266  0.74620511     0.07000
H324        H  0.34435077  0.90873666  0.67883762     0.06800
Zr325      Zr  0.03767066  0.00325824  0.07934496     2.17500
O326        O  0.50375571  0.98947171  0.14259418    -0.50600
O327        O  0.08979901  0.52745279  0.11598405    -0.73800
O328        O  0.03352682  0.96243819  0.11518546    -0.80600
O329        O  0.03439453  0.57066020  0.06548255    -0.82400
O330        O  0.02951979  0.93050833  0.06604596    -0.78000
O331        O  0.03377331  0.54019139  0.11472284    -0.89600
O332        O  0.13075097  0.54553855  0.06740264    -0.75600
O333        O  0.07031434  0.99164070  0.03897730    -0.85100
O334        O  0.07318266  0.54530714  0.03873967    -0.84800
O335        O  0.99926566  0.96168012  0.03861115    -0.71500
O336        O  0.00249818  0.51184259  0.03773757    -0.83700
Zr337      Zr  0.03366460  0.50136927  0.91355304     2.26400
Zr338      Zr  0.03250948  0.95099225  0.99657639     2.06300
Zr339      Zr  0.03838850  0.55355921  0.99603168     2.10000
Zr340      Zr  0.10548545  0.53356024  0.99806674     1.78800
O341        O  0.99585687  0.56417679  0.99146170    -0.92500
O342        O  0.14062029  0.51455411  0.99934444    -0.40300
O343        O  0.07172819  0.54281136  0.95454675    -0.76900
O344        O  0.06896159  0.99275108  0.95497997    -0.95600
O345        O  0.99789490  0.95941085  0.95402722    -0.88900
O346        O  0.00088524  0.51279137  0.95409781    -0.91700
C347        C  0.12006279  0.54110524  0.10537688     1.02000
C348        C  0.03307525  0.56222985  0.10367273     1.15000
C349        C  0.03043146  0.93867545  0.10425737     1.05700
O350        O  0.07271614  0.93751994  0.99708398    -0.93900
O351        O  0.03375347  0.93264639  0.92684881    -0.89600
O352        O  0.03258584  0.96217140  0.87747370    -0.82800
C353        C  0.03339484  0.94020335  0.88856740     1.12400
O354        O  0.43107761  0.95636013  0.05790910    -0.95900
Zr355      Zr  0.46558717  0.97095599  0.99511887     1.88900
O356        O  0.48171272  0.97802079  0.87674466    -0.72500
O357        O  0.48596622  0.90111953  0.99389845    -0.51800
O358        O  0.42916926  0.91851164  0.99533009    -0.96400
O359        O  0.42870366  0.98818558  0.99572583    -0.53700
O360        O  0.44071354  0.95944609  0.92543204    -0.73000
C361        C  0.45145029  0.96422842  0.88742268     0.99300
O362        O  0.07059520  0.51721337  0.85290977    -0.61800
O363        O  0.08281139  0.60429557  0.99825874    -0.56600
O364        O  0.03829745  0.54208610  0.87718963    -0.93300
O365        O  0.04419253  0.57476420  0.92635026    -0.91800
O366        O  0.14287768  0.58584799  0.99728733    -0.92100
O367        O  0.14239109  0.54965845  0.93772096    -0.90900
C368        C  0.04276012  0.56635628  0.88814248     1.18200
H369        H  0.08681890  0.56181029  0.05658849     0.34100
H370        H  0.08192119  0.98868570  0.93673368     0.45000
H371        H  0.98836811  0.51752396  0.93612796     0.38500
H372        H  0.48523559  0.94569085  0.05711293     0.35000
H373        H  0.16265045  0.53136272  0.00653587     0.26800
H374        H  0.49514947  0.88946503  0.00162659     0.32700
H375        H  0.40828158  0.91460336  0.98343621     0.38600
H376        H  0.16385259  0.58932033  0.00812361     0.33100
H377        H  0.07181686  0.61487105  0.00268997     0.31900
H378        H  0.00791973  0.58550025  0.98971587     0.33600
H379        H  0.40827450  0.97253345  0.98236237     0.32600
H380        H  0.13006663  0.55166381  0.91457565     0.36600
H381        H  0.08575738  0.53834515  0.85630363     0.29300
H382        H  0.51743606  0.98953628  0.16582939     0.33600
H383        H  0.40835236  0.94290482  0.04797551     0.36400
H384        H  0.09440819  0.60663205  0.02511524     0.29000
H385        H  0.08470928  0.50961327  0.85794542     0.41900
H386        H  0.08709181  0.94801023  0.02143045     0.31900
H387        H  0.13374703  0.00217498  0.02484445     0.39600
H388        H  0.43809081  0.50423433  0.97522058     0.31400
H389        H  0.47207536  0.89908337  0.01822735     0.31500
H390        H  0.48619267  0.96890382  0.13855570     0.31700
Zr391      Zr  0.03342053  0.50071247  0.57926246     2.17500
O392        O  0.06733332  0.51414101  0.64246071    -0.50600
O393        O  0.48138864  0.97680152  0.61602119    -0.73800
O394        O  0.03793377  0.54168916  0.61507826    -0.80600
O395        O  0.03645568  0.93316517  0.56537508    -0.82400
O396        O  0.04136019  0.57340583  0.56594475    -0.78000
O397        O  0.03657808  0.96337347  0.61463383    -0.89600
O398        O  0.44040246  0.95850707  0.56749144    -0.75600
O399        O  0.00066049  0.51222312  0.53892441    -0.85100
O400        O  0.99790919  0.95866245  0.53870140    -0.84800
O401        O  0.07166050  0.54233913  0.53845842    -0.71500
O402        O  0.06868183  0.99218491  0.53768145    -0.83700
Zr403      Zr  0.03731332  0.00267399  0.41352495     2.26400
Zr404      Zr  0.03830395  0.55293252  0.49646135     2.06300
Zr405      Zr  0.03272288  0.95048477  0.49594703     2.10000
Zr406      Zr  0.46551831  0.97030500  0.49805644     1.78800
O407        O  0.07516038  0.93980034  0.49066114    -0.92500
O408        O  0.43012503  0.98903448  0.49912599    -0.40300
O409        O  0.99931525  0.96115873  0.45447117    -0.76900
O410        O  0.00189244  0.51114864  0.45492330    -0.95600
O411        O  0.07305445  0.54466161  0.45393290    -0.88900
O412        O  0.07015047  0.99132072  0.45407380    -0.91700
C413        C  0.45111898  0.96305543  0.60545121     1.02000
C414        C  0.03739206  0.94139580  0.60359192     1.15000
C415        C  0.04074300  0.56534348  0.60415378     1.05700
O416        O  0.99788150  0.56615544  0.49727090    -0.93900
O417        O  0.03688403  0.57126687  0.42676444    -0.89600
O418        O  0.03841061  0.54190688  0.37745210    -0.82800
C419        C  0.03739543  0.56377944  0.38849218     1.12400
O420        O  0.14014219  0.54854530  0.55767200    -0.95900
Zr421      Zr  0.10542650  0.53316974  0.49504280     1.88900
O422        O  0.08922559  0.52574101  0.37674897    -0.72500
O423        O  0.08457872  0.60291000  0.49343952    -0.51800
O424        O  0.14185375  0.58561868  0.49461974    -0.96400
O425        O  0.14232303  0.51596603  0.49631976    -0.53700
O426        O  0.13024066  0.54412048  0.42537578    -0.73000
C427        C  0.11947167  0.53927751  0.38739821     0.99300
O428        O  0.50053619  0.98704079  0.35277586    -0.61800
O429        O  0.48833150  0.89974097  0.49812874    -0.56600
O430        O  0.03269045  0.96197732  0.37711326    -0.93300
O431        O  0.02698092  0.92935228  0.42626317    -0.91800
O432        O  0.42826668  0.91799149  0.49728952    -0.92100
O433        O  0.42854610  0.95393700  0.43778920    -0.90900
C434        C  0.02835026  0.93774677  0.38806098     1.18200
H435        H  0.48428804  0.94216500  0.55658387     0.34100
H436        H  0.48888773  0.51516389  0.43668087     0.45000
H437        H  0.08268043  0.98659611  0.43611672     0.38500
H438        H  0.08568373  0.55835491  0.55691182     0.35000
H439        H  0.40842750  0.97244255  0.50797285     0.26800
H440        H  0.07516601  0.61447625  0.50054788     0.32700
H441        H  0.16216742  0.58951464  0.48082902     0.38600
H442        H  0.40740554  0.91442759  0.50874088     0.33100
H443        H  0.49919167  0.88926619  0.50446965     0.31900
H444        H  0.06306692  0.91845229  0.48973152     0.33600
H445        H  0.16265919  0.53143298  0.48252633     0.32600
H446        H  0.44044123  0.95097693  0.41507895     0.36600
H447        H  0.48553773  0.96586246  0.35581606     0.29300
H448        H  0.05381074  0.51433857  0.66569185     0.33600
H449        H  0.16288324  0.56150594  0.54742207     0.36400
H450        H  0.47582050  0.89766087  0.52401351     0.29000
H451        H  0.48622713  0.99441109  0.35805852     0.41900
H452        H  0.48392238  0.55600772  0.52209204     0.31900
H453        H  0.43785859  0.50238670  0.52359156     0.39600
H454        H  0.13290554  0.99975974  0.47602884     0.31400
H455        H  0.09833631  0.60521132  0.51806912     0.31500
H456        H  0.08514085  0.53462034  0.63833477     0.31700
C457        C  0.23061367  0.59638158  0.24721620     0.03800
C458        C  0.21303672  0.58613654  0.28526603    -0.12300
C459        C  0.17884799  0.56805186  0.28475744     0.01300
C460        C  0.16202289  0.55984124  0.24638042    -0.10800
C461        C  0.17922080  0.56979064  0.20837778     0.03800
C462        C  0.21342814  0.58813984  0.20870164    -0.10300
H463        H  0.22586187  0.59263850  0.31520589     0.09400
H464        H  0.13550018  0.54583143  0.24609902     0.07000
H465        H  0.22663113  0.59565931  0.17910276     0.06800
C466        C  0.00007860  0.62238373  0.24793656     0.03800
C467        C  0.00723342  0.61456889  0.20916928    -0.12300
C468        C  0.02292318  0.59946089  0.20819204     0.01300
C469        C  0.03197680  0.59243823  0.24603385    -0.10800
C470        C  0.02513632  0.60029255  0.28482353     0.03800
C471        C  0.00921975  0.61520414  0.28572458    -0.10300
H472        H  0.99953128  0.61929990  0.17987226     0.09400
H473        H  0.04350170  0.58019546  0.24533211     0.07000
H474        H  0.00358358  0.62089356  0.31581030     0.06800
C475        C  0.37213864  0.67085097  0.24861915     0.03800
C476        C  0.38809346  0.70107388  0.24772349    -0.12300
C477        C  0.42246055  0.71886510  0.24702851     0.01300
C478        C  0.44088924  0.70612346  0.24738475    -0.10800
C479        C  0.42538324  0.67599033  0.24852899     0.03800
C480        C  0.39102280  0.65853596  0.24906086    -0.10300
H481        H  0.37376150  0.71078780  0.24750924     0.09400
H482        H  0.46740144  0.71972316  0.24787510     0.07000
H483        H  0.37894871  0.63525692  0.24867339     0.06800
C484        C  0.48979387  0.84353149  0.24576994     0.03800
C485        C  0.49887890  0.85902148  0.20752833    -0.12300
C486        C  0.01510586  0.88918773  0.20767460     0.01300
C487        C  0.02262610  0.90404458  0.24606135    -0.10800
C488        C  0.01372395  0.88886240  0.28426085     0.03800
C489        C  0.49731861  0.85871478  0.28412129    -0.10300
H490        H  0.49256646  0.84758836  0.17771100     0.09400
H491        H  0.03474545  0.92735921  0.24618484     0.07000
H492        H  0.49047498  0.84711682  0.31383101     0.06800
C493        C  0.42868116  0.76475621  0.27241275    -0.12600
C494        C  0.43921954  0.75075925  0.24617665     0.09500
C495        C  0.46620192  0.76746673  0.21944918    -0.12600
C496        C  0.48241409  0.79754290  0.21908448    -0.12600
C497        C  0.47215192  0.81156876  0.24567101     0.09500
C498        C  0.44507624  0.79487096  0.27229788    -0.12600
H499        H  0.40810564  0.75243434  0.29354945     0.13500
H500        H  0.47465217  0.75722997  0.19861267     0.13500
H501        H  0.00333064  0.80989205  0.19846330     0.13500
H502        H  0.43644421  0.80511304  0.29281822     0.13500
C503        C  0.45459581  0.62652374  0.27598026    -0.12600
C504        C  0.48160462  0.63669160  0.24892682     0.09500
C505        C  0.99032682  0.66011667  0.22216008    -0.12600
C506        C  0.47231629  0.67310513  0.22237397    -0.12600
C507        C  0.44502112  0.66270241  0.24903295     0.09500
C508        C  0.43640374  0.63932479  0.27591359    -0.12600
H509        H  0.44719793  0.60831666  0.29664262     0.13500
H510        H  0.01114745  0.66841166  0.20116344     0.13500
H511        H  0.47935936  0.69094884  0.20111123     0.13500
H512        H  0.41568202  0.63104938  0.29707534     0.13500
C513        C  0.28288839  0.64046945  0.22240026    -0.12600
C514        C  0.26679738  0.61562832  0.24780053     0.09500
C515        C  0.28548373  0.60926223  0.27384478    -0.12600
C516        C  0.31962200  0.62724897  0.27423165    -0.12600
C517        C  0.33580659  0.65206933  0.24871777     0.09500
C518        C  0.31704862  0.65855987  0.22293664    -0.12600
H519        H  0.26900458  0.64599200  0.20233962     0.13500
H520        H  0.27367849  0.59014475  0.29354102     0.13500
H521        H  0.33336776  0.62184661  0.29477180     0.13500
H522        H  0.32881311  0.67736680  0.20263114     0.13500
C523        C  0.01992252  0.90427724  0.32341293    -0.12600
C524        C  0.02423299  0.91859447  0.35444795    -0.14100
C525        C  0.14293932  0.54988314  0.35387872    -0.12600
C526        C  0.16058204  0.55840054  0.32345216    -0.14100
C527        C  0.03201189  0.59092945  0.32366733    -0.12600
C528        C  0.03565179  0.58035924  0.35482798    -0.14100
C529        C  0.02218252  0.90496511  0.16863697    -0.12600
C530        C  0.02680588  0.91960801  0.13783332    -0.14100
C531        C  0.02757867  0.58922843  0.16863346    -0.12600
C532        C  0.03043528  0.57834930  0.13727165    -0.14100
C533        C  0.14362608  0.55238027  0.13888292    -0.12600
C534        C  0.16128526  0.56100865  0.16933304    -0.14100
C535        C  0.42756013  0.95172135  0.63897140    -0.12600
C536        C  0.40981053  0.94293679  0.66934236    -0.14100
C537        C  0.42792578  0.95322646  0.85390872    -0.12600
C538        C  0.41025235  0.94454982  0.82349387    -0.14100
C539        C  0.25124624  0.87663321  0.77434629    -0.12600
C540        C  0.23498220  0.85189987  0.74867278     0.09500
C541        C  0.25367128  0.84552720  0.72255173    -0.12600
C542        C  0.28783528  0.86363504  0.72183185    -0.12600
C543        C  0.30402210  0.88835224  0.74745681     0.09500
C544        C  0.28540148  0.89461741  0.77382531    -0.12600
H545        H  0.23754777  0.88195908  0.79511182     0.13500
H546        H  0.24183909  0.82679431  0.70212022     0.13500
H547        H  0.30165364  0.85818562  0.70151146     0.13500
H548        H  0.29727582  0.91363359  0.79371208     0.13500
C549        C  0.04275379  0.91445700  0.66874303    -0.12600
C550        C  0.03982961  0.92519408  0.63725421    -0.14100
C551        C  0.03872895  0.91300959  0.82382755    -0.12600
C552        C  0.03507929  0.92357905  0.85496169    -0.14100
C553        C  0.08082336  0.84432377  0.72193031    -0.12600
C554        C  0.08950459  0.86762809  0.74892081     0.09500
C555        C  0.11638557  0.87759719  0.77612610    -0.12600
C556        C  0.13447258  0.86469870  0.77600651    -0.12600
C557        C  0.12589116  0.84144356  0.74889579     0.09500
C558        C  0.09873645  0.83125069  0.72207042    -0.12600
H559        H  0.06008637  0.83616745  0.70083045     0.13500
H560        H  0.12375801  0.89571079  0.79696146     0.13500
H561        H  0.15509070  0.87280502  0.79729741     0.13500
H562        H  0.09172625  0.81350308  0.70064020     0.13500
C563        C  0.04879971  0.59897978  0.66854522    -0.12600
C564        C  0.04429288  0.58438005  0.63773209    -0.14100
C565        C  0.04693193  0.58551702  0.85450275    -0.12600
C566        C  0.05121410  0.59975513  0.82337333    -0.14100
C567        C  0.08812426  0.70634764  0.71930843    -0.12600
C568        C  0.09866347  0.69237687  0.74554671     0.09500
C569        C  0.12586280  0.70911885  0.77194765    -0.12600
C570        C  0.14214868  0.73922827  0.77212575    -0.12600
C571        C  0.13140980  0.75319730  0.74614773     0.09500
C572        C  0.10423508  0.73642379  0.71972753    -0.12600
H573        H  0.06708818  0.69395133  0.69889929     0.13500
H574        H  0.13467651  0.69891356  0.79224131     0.13500
H575        H  0.16283059  0.75156702  0.79308618     0.13500
H576        H  0.09558795  0.74660442  0.69910216     0.13500
C577        C  0.58109548  0.16041442  0.74563294     0.03800
C578        C  0.57368228  0.14524717  0.78398662    -0.12300
C579        C  0.55732523  0.11510863  0.78416897     0.01300
C580        C  0.54838093  0.09990795  0.74598937    -0.10800
C581        C  0.55582524  0.11475347  0.70757713     0.03800
C582        C  0.57197569  0.14491982  0.70740460    -0.10300
H583        H  0.58056307  0.15685667  0.81367810     0.09400
H584        H  0.53630730  0.07659782  0.74614658     0.07000
H585        H  0.57821214  0.15635448  0.67758333     0.06800
C586        C  0.57106860  0.38196228  0.74803381     0.03800
C587        C  0.56190109  0.38908174  0.78584858    -0.12300
C588        C  0.54568940  0.40373639  0.78497452     0.01300
C589        C  0.53858746  0.41140052  0.74619744    -0.10800
C590        C  0.54768942  0.40444948  0.70833483     0.03800
C591        C  0.56371390  0.38963847  0.70929129    -0.10300
H592        H  0.56766930  0.38348877  0.81592454     0.09400
H593        H  0.52680444  0.42342663  0.74551745     0.07000
H594        H  0.57143514  0.38496061  0.67996735     0.06800
C595        C  0.69863729  0.33312818  0.74859041     0.03800
C596        C  0.67980244  0.34548299  0.74900226    -0.12300
C597        C  0.64544320  0.32807271  0.74833646     0.01300
C598        C  0.62986716  0.29792985  0.74708972    -0.10800
C599        C  0.64823308  0.28512078  0.74686237     0.03800
C600        C  0.68262148  0.30289283  0.74763779    -0.10300
H601        H  0.69192125  0.36876812  0.74870208     0.09400
H602        H  0.60335072  0.28438484  0.74749287     0.07000
H603        H  0.69693730  0.29316457  0.74743626     0.06800
C604        C  0.84024821  0.40748502  0.74698209     0.03800
C605        C  0.85779369  0.41728700  0.78511790    -0.12300
C606        C  0.89201719  0.43515092  0.78474491     0.01300
C607        C  0.90890611  0.44353777  0.74640763    -0.10800
C608        C  0.89176107  0.43402343  0.70832478     0.03800
C609        C  0.85751428  0.41594205  0.70850865    -0.10300
H610        H  0.84490606  0.41063370  0.81501243     0.09400
H611        H  0.93544458  0.45738475  0.74621521     0.07000
H612        H  0.84435234  0.40876295  0.67885165     0.06800
Zr613      Zr  0.53768573  0.50325888  0.07934929     2.17500
O614        O  0.00377273  0.48946732  0.14260266    -0.50600
O615        O  0.58978217  0.02744129  0.11599087    -0.73800
O616        O  0.53352604  0.46242913  0.11518322    -0.80600
O617        O  0.53440385  0.07067190  0.06547454    -0.82400
O618        O  0.52953309  0.43050564  0.06604289    -0.78000
O619        O  0.53376980  0.04019899  0.11471681    -0.89600
O620        O  0.63073795  0.04551159  0.06741716    -0.75600
O621        O  0.57033417  0.49165014  0.03897598    -0.85100
O622        O  0.57317609  0.04530256  0.03873421    -0.84800
O623        O  0.49928402  0.46168271  0.03861537    -0.71500
O624        O  0.50248684  0.01184281  0.03772679    -0.83700
Zr625      Zr  0.53366163  0.00136646  0.91355047     2.26400
Zr626      Zr  0.53252970  0.45099844  0.99657826     2.06300
Zr627      Zr  0.53838456  0.05355776  0.99602490     2.10000
Zr628      Zr  0.60547901  0.03354774  0.99807532     1.78800
O629        O  0.49585845  0.06418367  0.99148418    -0.92500
O630        O  0.64061915  0.01454623  0.99939756    -0.40300
O631        O  0.57172832  0.04280741  0.95454958    -0.76900
O632        O  0.56897318  0.49275864  0.95497794    -0.95600
O633        O  0.49790737  0.45941299  0.95403681    -0.88900
O634        O  0.50088076  0.01279226  0.95408500    -0.91700
C635        C  0.62004710  0.04108250  0.10539003     1.02000
C636        C  0.53308118  0.06224229  0.10366641     1.15000
C637        C  0.53043238  0.43866714  0.10425442     1.05700
O638        O  0.57276755  0.43756141  0.99707506    -0.93900
O639        O  0.53375175  0.43264230  0.92684834    -0.89600
O640        O  0.53261017  0.46218278  0.87747726    -0.82800
C641        C  0.53340581  0.44020749  0.88856755     1.12400
O642        O  0.93108149  0.45628183  0.05792370    -0.95900
Zr643      Zr  0.96559848  0.47095423  0.99513293     1.88900
O644        O  0.98171356  0.47801788  0.87675480    -0.72500
O645        O  0.98600219  0.40111834  0.99392531    -0.51800
O646        O  0.92920024  0.41850845  0.99526228    -0.96400
O647        O  0.92871999  0.48818831  0.99585256    -0.53700
O648        O  0.94072008  0.45949312  0.92544739    -0.73000
C649        C  0.95145318  0.46425722  0.88743613     0.99300
O650        O  0.57059721  0.01719733  0.85291401    -0.61800
O651        O  0.58280463  0.10429422  0.99824846    -0.56600
O652        O  0.53831254  0.04208670  0.87717922    -0.93300
O653        O  0.54417017  0.07475147  0.92633932    -0.91800
O654        O  0.64289362  0.08583325  0.99734941    -0.92100
O655        O  0.64236033  0.04959893  0.93770559    -0.90900
C656        C  0.54275613  0.06634964  0.88813210     1.18200
H657        H  0.58681330  0.06180528  0.05658344     0.34100
H658        H  0.58193368  0.48869527  0.93673020     0.45000
H659        H  0.48836713  0.01752554  0.93610963     0.38500
H660        H  0.98525580  0.44569216  0.05711535     0.35000
H661        H  0.66266184  0.03137080  0.00649891     0.26800
H662        H  0.99520639  0.38947055  0.00159136     0.32700
H663        H  0.90831797  0.41460055  0.98334959     0.38600
H664        H  0.66388387  0.08928636  0.00808792     0.33100
H665        H  0.57180913  0.11486851  0.00268378     0.31900
H666        H  0.50792301  0.08551199  0.98987231     0.33600
H667        H  0.90830625  0.47256989  0.98241555     0.32600
H668        H  0.63015587  0.05186542  0.91466710     0.36600
H669        H  0.58577109  0.03832705  0.85631529     0.29300
H670        H  0.01744821  0.48951879  0.16583351     0.33600
H671        H  0.90835472  0.44285706  0.04797109     0.36400
H672        H  0.59440349  0.10663080  0.02510315     0.29000
H673        H  0.58469821  0.00958400  0.85795044     0.41900
H674        H  0.58707326  0.44797683  0.02150841     0.31900
H675        H  0.63371825  0.50214460  0.02476842     0.39600
H676        H  0.93803672  0.00417823  0.97503781     0.31400
H677        H  0.97213807  0.39906814  0.01829498     0.31500
H678        H  0.98620156  0.46890304  0.13855392     0.31700
Zr679      Zr  0.53342243  0.00071302  0.57925363     2.17500
O680        O  0.56734075  0.01413773  0.64244651    -0.50600
O681        O  0.98138912  0.47682218  0.61603457    -0.73800
O682        O  0.53795737  0.04169580  0.61507735    -0.80600
O683        O  0.53644796  0.43315754  0.56536544    -0.82400
O684        O  0.54136415  0.07340471  0.56594571    -0.78000
O685        O  0.53655092  0.46335216  0.61463228    -0.89600
O686        O  0.94040389  0.45853962  0.56750559    -0.75600
O687        O  0.50065845  0.01222280  0.53891834    -0.85100
O688        O  0.49790883  0.45866191  0.53870713    -0.84800
O689        O  0.57166206  0.04233834  0.53845309    -0.71500
O690        O  0.56868579  0.49219355  0.53768391    -0.83700
Zr691      Zr  0.53731026  0.50267256  0.41352315     2.26400
Zr692      Zr  0.53830514  0.05293385  0.49646043     2.06300
Zr693      Zr  0.53272908  0.45049349  0.49594610     2.10000
Zr694      Zr  0.96551656  0.47030690  0.49806940     1.78800
O695        O  0.57519580  0.43984584  0.49065482    -0.92500
O696        O  0.93017402  0.48908806  0.49914570    -0.40300
O697        O  0.49931373  0.46116170  0.45447767    -0.76900
O698        O  0.50189459  0.01115183  0.45491807    -0.95600
O699        O  0.57305644  0.04465829  0.45393862    -0.88900
O700        O  0.57015382  0.49132773  0.45407056    -0.91700
C701        C  0.95112008  0.46308969  0.60546513     1.02000
C702        C  0.53736923  0.44137692  0.60358511     1.15000
C703        C  0.54076064  0.06534766  0.60415372     1.05700
O704        O  0.49783699  0.06610392  0.49723265    -0.93900
O705        O  0.53691902  0.07129066  0.42676922    -0.89600
O706        O  0.53839479  0.04190377  0.37746061    -0.82800
C707        C  0.53740434  0.06378936  0.38849776     1.12400
O708        O  0.64012541  0.04855489  0.55768891    -0.95900
Zr709      Zr  0.60542262  0.03316022  0.49504752     1.88900
O710        O  0.58923587  0.02576598  0.37677074    -0.72500
O711        O  0.58453493  0.10293402  0.49348775    -0.51800
O712        O  0.64180073  0.08561099  0.49458364    -0.96400
O713        O  0.64235171  0.01598963  0.49631464    -0.53700
O714        O  0.63025005  0.04412272  0.42539586    -0.73000
C715        C  0.61948086  0.03929594  0.38742024     0.99300
O716        O  0.00049017  0.48703281  0.35282001    -0.61800
O717        O  0.98836361  0.39974417  0.49811526    -0.56600
O718        O  0.53267053  0.46196809  0.37711233    -0.93300
O719        O  0.52696852  0.42934850  0.42626640    -0.91800
O720        O  0.92824535  0.41799447  0.49733309    -0.92100
O721        O  0.92851040  0.45392845  0.43783777    -0.90900
C722        C  0.52832805  0.43773706  0.38806268     1.18200
H723        H  0.98428796  0.44216453  0.55658847     0.34100
H724        H  0.98889206  0.01516871  0.43667539     0.45000
H725        H  0.58268238  0.48660228  0.43611239     0.38500
H726        H  0.58568734  0.05835413  0.55690523     0.35000
H727        H  0.90845664  0.47249783  0.50793504     0.26800
H728        H  0.57509333  0.11447633  0.50060250     0.32700
H729        H  0.66213583  0.08951896  0.48084359     0.38600
H730        H  0.90740597  0.41443817  0.50885474     0.33100
H731        H  0.99923142  0.38928208  0.50450163     0.31900
H732        H  0.56311397  0.41850045  0.48962931     0.33600
H733        H  0.66270704  0.03149279  0.48260215     0.32600
H734        H  0.94042000  0.45101962  0.41508961     0.36600
H735        H  0.98550519  0.46585271  0.35585714     0.29300
H736        H  0.55382988  0.01435261  0.66567866     0.33600
H737        H  0.66286925  0.06149921  0.54743855     0.36400
H738        H  0.97582593  0.39766215  0.52397364     0.29000
H739        H  0.98617493  0.49439168  0.35814401     0.41900
H740        H  0.98393256  0.05601915  0.52210517     0.31900
H741        H  0.93782821  0.00236901  0.52352225     0.39600
H742        H  0.63283107  0.49969670  0.47609059     0.31400
H743        H  0.59829217  0.10524193  0.51812139     0.31500
H744        H  0.58516103  0.03461137  0.63830872     0.31700
C745        C  0.73060492  0.09639233  0.24723194     0.03800
C746        C  0.71302861  0.08616227  0.28528217    -0.12300
C747        C  0.67884096  0.06808185  0.28477440     0.01300
C748        C  0.66201383  0.05986135  0.24639895    -0.10800
C749        C  0.67921089  0.06979215  0.20839323     0.03800
C750        C  0.71341957  0.08813823  0.20871590    -0.10300
H751        H  0.72585384  0.09267082  0.31522191     0.09400
H752        H  0.63549092  0.04585366  0.24612093     0.07000
H753        H  0.72662367  0.09564528  0.17911633     0.06800
C754        C  0.50010338  0.12241125  0.24794296     0.03800
C755        C  0.50726135  0.11459995  0.20917346    -0.12300
C756        C  0.52294486  0.09948590  0.20819288     0.01300
C757        C  0.53199103  0.09245647  0.24603586    -0.10800
C758        C  0.52514982  0.10030920  0.28482755     0.03800
C759        C  0.50923948  0.11522624  0.28573005    -0.10300
H760        H  0.49956287  0.11933548  0.17987732     0.09400
H761        H  0.54351002  0.08020886  0.24533348     0.07000
H762        H  0.50360116  0.12091326  0.31581634     0.06800
C763        C  0.87212896  0.17084812  0.24861343     0.03800
C764        C  0.88808463  0.20107048  0.24768874    -0.12300
C765        C  0.92245089  0.21885986  0.24698023     0.01300
C766        C  0.94087812  0.20611822  0.24734494    -0.10800
C767        C  0.92537387  0.17598648  0.24851314     0.03800
C768        C  0.89101249  0.15853168  0.24906540    -0.10300
H769        H  0.87375393  0.21078557  0.24746892     0.09400
H770        H  0.96739019  0.21971846  0.24783125     0.07000
H771        H  0.87893735  0.13525245  0.24870105     0.06800
C772        C  0.98981235  0.34352357  0.24576637     0.03800
C773        C  0.99888967  0.35901270  0.20752532    -0.12300
C774        C  0.51508794  0.38917530  0.20767387     0.01300
C775        C  0.52258774  0.40403007  0.24606113    -0.10800
C776        C  0.51369991  0.38884846  0.28426136     0.03800
C777        C  0.99732290  0.35870393  0.28411866    -0.10300
H778        H  0.99258939  0.34758016  0.17770804     0.09400
H779        H  0.53468379  0.42734234  0.24618432     0.07000
H780        H  0.99048589  0.34710471  0.31382729     0.06800
C781        C  0.92867270  0.26475007  0.27236051    -0.12600
C782        C  0.93921421  0.25075333  0.24613010     0.09500
C783        C  0.96621433  0.26746128  0.21942822    -0.12600
C784        C  0.98244092  0.29753822  0.21908421    -0.12600
C785        C  0.97217292  0.31156263  0.24566343     0.09500
C786        C  0.94508071  0.29486484  0.27226446    -0.12600
H787        H  0.90808571  0.25242824  0.29348057     0.13500
H788        H  0.97466832  0.25722478  0.19859740     0.13500
H789        H  0.50336949  0.30988759  0.19848111     0.13500
H790        H  0.93644470  0.30510730  0.29277724     0.13500
C791        C  0.95461369  0.12654107  0.27598196    -0.12600
C792        C  0.98163155  0.13672107  0.24894016     0.09500
C793        C  0.49034440  0.16014159  0.22217648    -0.12600
C794        C  0.97232802  0.17312389  0.22238392    -0.12600
C795        C  0.94502026  0.16270627  0.24902567     0.09500
C796        C  0.93640814  0.13932973  0.27590560    -0.12600
H797        H  0.94721787  0.10833253  0.29664025     0.13500
H798        H  0.51117174  0.16844582  0.20118952     0.13500
H799        H  0.97937026  0.19096849  0.20112347     0.13500
H800        H  0.91568029  0.13104523  0.29705872     0.13500
C801        C  0.78287923  0.14047222  0.22240945    -0.12600
C802        C  0.76678789  0.11563694  0.24781960     0.09500
C803        C  0.78547276  0.10927640  0.27387785    -0.12600
C804        C  0.81961167  0.12726021  0.27425993    -0.12600
C805        C  0.83579679  0.15207133  0.24872753     0.09500
C806        C  0.81703903  0.15855910  0.22294071    -0.12600
H807        H  0.76899590  0.14599142  0.20234173     0.13500
H808        H  0.77366613  0.09016450  0.29358574     0.13500
H809        H  0.83335750  0.12186189  0.29480710     0.13500
H810        H  0.82880340  0.17735985  0.20262331     0.13500
C811        C  0.51988562  0.40426028  0.32341523    -0.12600
C812        C  0.52419724  0.41857805  0.35445095    -0.14100
C813        C  0.64294576  0.04991286  0.35390168    -0.12600
C814        C  0.66058087  0.05843435  0.32347031    -0.14100
C815        C  0.53201828  0.09093924  0.32367157    -0.12600
C816        C  0.53565810  0.08036786  0.35483189    -0.14100
C817        C  0.52216192  0.40495060  0.16863484    -0.12600
C818        C  0.52679256  0.41959408  0.13782954    -0.14100
C819        C  0.52759689  0.08925065  0.16863073    -0.12600
C820        C  0.53044861  0.07836788  0.13726710    -0.14100
C821        C  0.64360943  0.05235359  0.13890055    -0.12600
C822        C  0.66127240  0.06099145  0.16934860    -0.14100
C823        C  0.92756090  0.45177195  0.63898492    -0.12600
C824        C  0.90980985  0.44299432  0.66935456    -0.14100
C825        C  0.92792729  0.45327435  0.85392286    -0.12600
C826        C  0.91025395  0.44461165  0.82350673    -0.14100
C827        C  0.75123740  0.37663853  0.77431956    -0.12600
C828        C  0.73498631  0.35189648  0.74866128     0.09500
C829        C  0.75369097  0.34552081  0.72257521    -0.12600
C830        C  0.78785530  0.36363823  0.72186788    -0.12600
C831        C  0.80402620  0.38836807  0.74746967     0.09500
C832        C  0.78539130  0.39463225  0.77380939    -0.12600
H833        H  0.73752991  0.38196592  0.79506480     0.13500
H834        H  0.74187168  0.32678053  0.70215772     0.13500
H835        H  0.80168634  0.35818942  0.70157142     0.13500
H836        H  0.79725358  0.41365649  0.79368008     0.13500
C837        C  0.54272003  0.41442464  0.66872957    -0.12600
C838        C  0.53979625  0.42516533  0.63724347    -0.14100
C839        C  0.53873756  0.41301765  0.82381875    -0.12600
C840        C  0.53508891  0.42358458  0.85495738    -0.14100
C841        C  0.58084049  0.34433317  0.72192791    -0.12600
C842        C  0.58951920  0.36763516  0.74892273     0.09500
C843        C  0.61638878  0.37759113  0.77614621    -0.12600
C844        C  0.63446804  0.36468455  0.77603569    -0.12600
C845        C  0.62589055  0.34143471  0.74891562     0.09500
C846        C  0.59874515  0.33125226  0.72207744    -0.12600
H847        H  0.56011067  0.33618341  0.70081731     0.13500
H848        H  0.62375957  0.39570127  0.79698805     0.13500
H849        H  0.65507938  0.37278245  0.79733632     0.13500
H850        H  0.59173746  0.31350787  0.70064170     0.13500
C851        C  0.54881660  0.09898572  0.66854122    -0.12600
C852        C  0.54431503  0.08438628  0.63773022    -0.14100
C853        C  0.54692570  0.08550904  0.85449356    -0.12600
C854        C  0.55120564  0.09974712  0.82336599    -0.14100
C855        C  0.58810645  0.20634371  0.71931084    -0.12600
C856        C  0.59863829  0.19237062  0.74555594     0.09500
C857        C  0.62584159  0.20910999  0.77195203    -0.12600
C858        C  0.64214023  0.23922029  0.77211657    -0.12600
C859        C  0.63140810  0.25319138  0.74613207     0.09500
C860        C  0.60422940  0.23642043  0.71971721    -0.12600
H861        H  0.56706839  0.19394902  0.69890412     0.13500
H862        H  0.63465001  0.19890208  0.79224937     0.13500
H863        H  0.66282563  0.25155831  0.79307225     0.13500
H864        H  0.59558766  0.24660370  0.69908815     0.13500
C865        C  0.58112454  0.66041965  0.74562788     0.03800
C866        C  0.57371098  0.64525412  0.78398381    -0.12300
C867        C  0.55733662  0.61511395  0.78417193     0.01300
C868        C  0.54837683  0.59990983  0.74599450    -0.10800
C869        C  0.55582583  0.61475322  0.70757927     0.03800
C870        C  0.57199371  0.64492138  0.70740203    -0.10300
H871        H  0.58060023  0.65686592  0.81367343     0.09400
H872        H  0.53628795  0.57659820  0.74615556     0.07000
H873        H  0.57823045  0.65635396  0.67757898     0.06800
C874        C  0.57105626  0.88195520  0.74803733     0.03800
C875        C  0.56187787  0.88906196  0.78585424    -0.12300
C876        C  0.54568163  0.90373016  0.78498376     0.01300
C877        C  0.53860361  0.91141692  0.74620938    -0.10800
C878        C  0.54771339  0.90447418  0.70834627     0.03800
C879        C  0.56372484  0.88965264  0.70929819    -0.10300
H880        H  0.56763144  0.88345346  0.81592780     0.09400
H881        H  0.52683195  0.92345266  0.74553257     0.07000
H882        H  0.57145430  0.88498260  0.67997432     0.06800
C883        C  0.69863514  0.83313483  0.74861402     0.03800
C884        C  0.67980338  0.84549159  0.74900553    -0.12300
C885        C  0.64544412  0.82808185  0.74832079     0.01300
C886        C  0.62986681  0.79793799  0.74707826    -0.10800
C887        C  0.64823155  0.78512740  0.74687844     0.03800
C888        C  0.68261938  0.80289983  0.74767214    -0.10300
H889        H  0.69192569  0.86877715  0.74870182     0.09400
H890        H  0.60335032  0.78439357  0.74746748     0.07000
H891        H  0.69693680  0.79317300  0.74748398     0.06800
C892        C  0.84024571  0.90745337  0.74696865     0.03800
C893        C  0.85779257  0.91724108  0.78510461    -0.12300
C894        C  0.89201687  0.93508973  0.78473167     0.01300
C895        C  0.90890684  0.94347025  0.74639517    -0.10800
C896        C  0.89176101  0.93396826  0.70831177     0.03800
C897        C  0.85751238  0.91590598  0.70849506    -0.10300
H898        H  0.84490496  0.91059208  0.81499937     0.09400
H899        H  0.93544616  0.95730704  0.74620374     0.07000
H900        H  0.84434994  0.90873948  0.67883732     0.06800
Zr901      Zr  0.53767100  0.00325836  0.07934498     2.17500
O902        O  0.00375368  0.98946789  0.14259298    -0.50600
O903        O  0.58979973  0.52745096  0.11598369    -0.73800
O904        O  0.53352344  0.96243692  0.11518587    -0.80600
O905        O  0.53439211  0.57065850  0.06548209    -0.82400
O906        O  0.52952044  0.93050844  0.06604681    -0.78000
O907        O  0.53377469  0.54019160  0.11472257    -0.89600
O908        O  0.63075241  0.54554122  0.06740288    -0.75600
O909        O  0.57031468  0.99164051  0.03897795    -0.85100
O910        O  0.57318341  0.54530690  0.03873951    -0.84800
O911        O  0.49926567  0.96168026  0.03861143    -0.71500
O912        O  0.50249880  0.51184287  0.03773753    -0.83700
Zr913      Zr  0.53366562  0.50136906  0.91355448     2.26400
Zr914      Zr  0.53250954  0.95099199  0.99657728     2.06300
Zr915      Zr  0.53838969  0.55355947  0.99603159     2.10000
Zr916      Zr  0.60548633  0.53355976  0.99806720     1.78800
O917        O  0.49586487  0.56418529  0.99145858    -0.92500
O918        O  0.64062324  0.51455579  0.99935167    -0.40300
O919        O  0.57172947  0.54281159  0.95454748    -0.76900
O920        O  0.56896227  0.99275057  0.95498112    -0.95600
O921        O  0.49789516  0.95941075  0.95402813    -0.88900
O922        O  0.50088625  0.51279156  0.95409828    -0.91700
C923        C  0.62006376  0.54110570  0.10537704     1.02000
C924        C  0.53307448  0.56222893  0.10367234     1.15000
C925        C  0.53042977  0.93867483  0.10425808     1.05700
O926        O  0.57271489  0.93751819  0.99708502    -0.93900
O927        O  0.53375404  0.93264580  0.92685013    -0.89600
O928        O  0.53258503  0.96216993  0.87747466    -0.82800
C929        C  0.53339437  0.94020206  0.88856861     1.12400
O930        O  0.93107941  0.95635601  0.05791126    -0.95900
Zr931      Zr  0.96558690  0.97095549  0.99511880     1.88900
O932        O  0.98171170  0.97802188  0.87674489    -0.72500
O933        O  0.98596804  0.90111884  0.99389954    -0.51800
O934        O  0.92917302  0.91851081  0.99532079    -0.96400
O935        O  0.92869972  0.98818106  0.99573519    -0.53700
O936        O  0.94071261  0.95944889  0.92543228    -0.73000
C937        C  0.95144933  0.96423089  0.88742286     0.99300
O938        O  0.57060164  0.51721780  0.85291690    -0.61800
O939        O  0.58281583  0.60429454  0.99826363    -0.56600
O940        O  0.53829504  0.54208329  0.87718803    -0.93300
O941        O  0.54419197  0.57476221  0.92634845    -0.91800
O942        O  0.64288318  0.58584695  0.99728539    -0.92100
O943        O  0.64238325  0.54964924  0.93771268    -0.90900
C944        C  0.54275815  0.56635365  0.88814068     1.18200
H945        H  0.58681962  0.56181000  0.05658839     0.34100
H946        H  0.58192168  0.98868494  0.93673512     0.45000
H947        H  0.48836955  0.51752420  0.93612789     0.38500
H948        H  0.98523575  0.94569058  0.05711262     0.35000
H949        H  0.66265412  0.53136645  0.00653481     0.26800
H950        H  0.99515250  0.88946537  0.00162815     0.32700
H951        H  0.90828319  0.91460208  0.98343410     0.38600
H952        H  0.66386185  0.58931666  0.00810163     0.33100
H953        H  0.57182177  0.61487209  0.00267667     0.31900
H954        H  0.50793103  0.58550910  0.98971742     0.33600
H955        H  0.90827194  0.97253008  0.98236768     0.32600
H956        H  0.63007576  0.55169550  0.91458618     0.36600
H957        H  0.58576392  0.53834918  0.85631564     0.29300
H958        H  0.01743396  0.98953264  0.16582844     0.33600
H959        H  0.90835450  0.94289747  0.04797908     0.36400
H960        H  0.59440244  0.60663193  0.02512951     0.29000
H961        H  0.58471459  0.50961661  0.85795294     0.41900
H962        H  0.58709737  0.94801607  0.02142286     0.31900
H963        H  0.63375590  0.00218480  0.02486536     0.39600
H964        H  0.93808631  0.50423136  0.97523093     0.31400
H965        H  0.97207713  0.89908243  0.01822851     0.31500
H966        H  0.98619180  0.96889979  0.13855301     0.31700
Zr967      Zr  0.53342070  0.50071200  0.57926244     2.17500
O968        O  0.56733374  0.51414258  0.64246090    -0.50600
O969        O  0.98138797  0.97680357  0.61602036    -0.73800
O970        O  0.53793380  0.54168879  0.61507782    -0.80600
O971        O  0.53645377  0.93316390  0.56537580    -0.82400
O972        O  0.54136340  0.57340670  0.56594411    -0.78000
O973        O  0.53658251  0.96337559  0.61463384    -0.89600
O974        O  0.94040194  0.95850880  0.56749038    -0.75600
O975        O  0.50066081  0.51222267  0.53892430    -0.85100
O976        O  0.49790856  0.95866183  0.53870150    -0.84800
O977        O  0.57166021  0.54233848  0.53845837    -0.71500
O978        O  0.56868137  0.99218342  0.53768196    -0.83700
Zr979      Zr  0.53731288  0.00267360  0.41352550     2.26400
Zr980      Zr  0.53830389  0.55293192  0.49646091     2.06300
Zr981      Zr  0.53272175  0.95048358  0.49594736     2.10000
Zr982      Zr  0.96551868  0.97030508  0.49805616     1.78800
O983        O  0.57515900  0.93979885  0.49066185    -0.92500
O984        O  0.93013153  0.98904083  0.49911782    -0.40300
O985        O  0.49931446  0.96115806  0.45447158    -0.76900
O986        O  0.50189256  0.51114835  0.45492211    -0.95600
O987        O  0.57305470  0.54466112  0.45393302    -0.88900
O988        O  0.57014937  0.99131968  0.45407435    -0.91700
C989        C  0.95111832  0.96305769  0.60545020     1.02000
C990        C  0.53739379  0.94139657  0.60359234     1.15000
C991        C  0.54074512  0.56534395  0.60415318     1.05700
O992        O  0.49788048  0.56615376  0.49727386    -0.93900
O993        O  0.53688088  0.57126576  0.42676503    -0.89600
O994        O  0.53841297  0.54190855  0.37745274    -0.82800
C995        C  0.53739479  0.56377963  0.38849278     1.12400
O996        O  0.64014197  0.54854412  0.55767289    -0.95900
Zr997      Zr  0.60542632  0.53316901  0.49504358     1.88900
O998        O  0.58922644  0.52574073  0.37674938    -0.72500
O999        O  0.58457988  0.60290858  0.49343397    -0.51800
O1000       O  0.64185314  0.58561789  0.49462813    -0.96400
O1001       O  0.64232316  0.51596552  0.49631662    -0.53700
O1002       O  0.63024113  0.54412342  0.42537697    -0.73000
C1003       C  0.61947248  0.53927925  0.38739924     0.99300
O1004       O  0.00053195  0.98703978  0.35278029    -0.61800
O1005       O  0.98833263  0.89974238  0.49813195    -0.56600
O1006       O  0.53268935  0.96197660  0.37711441    -0.93300
O1007       O  0.52698253  0.92935226  0.42626369    -0.91800
O1008       O  0.92826951  0.91799115  0.49729267    -0.92100
O1009       O  0.92853872  0.95392890  0.43779660    -0.90900
C1010       C  0.52835096  0.93774669  0.38806177     1.18200
H1011       H  0.98428865  0.94216568  0.55658391     0.34100
H1012       H  0.98888761  0.51516420  0.43668198     0.45000
H1013       H  0.58267929  0.98659518  0.43611714     0.38500
H1014       H  0.58568355  0.55835434  0.55691177     0.35000
H1015       H  0.90843240  0.97245056  0.50796315     0.26800
H1016       H  0.57516764  0.61447586  0.50053794     0.32700
H1017       H  0.66216636  0.58951495  0.48083467     0.38600
H1018       H  0.90740900  0.91442615  0.50874822     0.33100
H1019       H  0.99919244  0.88926804  0.50447825     0.31900
H1020       H  0.56306584  0.91845056  0.48974525     0.33600
H1021       H  0.66265804  0.53143166  0.48251967     0.32600
H1022       H  0.94044689  0.95099806  0.41507134     0.36600
H1023       H  0.98553623  0.96586106  0.35581918     0.29300
H1024       H  0.55381100  0.51434009  0.66569189     0.33600
H1025       H  0.66288368  0.56149992  0.54742218     0.36400
H1026       H  0.97582002  0.89766377  0.52401437     0.29000
H1027       H  0.98622091  0.99440739  0.35806829     0.41900
H1028       H  0.98391901  0.55600537  0.52208416     0.31900
H1029       H  0.93785403  0.50238417  0.52358765     0.39600
H1030       H  0.63290954  0.99976394  0.47601572     0.31400
H1031       H  0.59833666  0.60521120  0.51806520     0.31500
H1032       H  0.58514084  0.53462198  0.63833447     0.31700
C1033       C  0.73061444  0.59638166  0.24721740     0.03800
C1034       C  0.71303751  0.58613700  0.28526722    -0.12300
C1035       C  0.67884877  0.56805275  0.28475865     0.01300
C1036       C  0.66202354  0.55984183  0.24638166    -0.10800
C1037       C  0.67922142  0.56979089  0.20837888     0.03800
C1038       C  0.71342887  0.58813993  0.20870278    -0.10300
H1039       H  0.72586265  0.59263914  0.31520710     0.09400
H1040       H  0.63550083  0.54583227  0.24610041     0.07000
H1041       H  0.72663189  0.59565935  0.17910390     0.06800
C1042       C  0.50007420  0.62238018  0.24793508     0.03800
C1043       C  0.50723035  0.61456608  0.20916812    -0.12300
C1044       C  0.52292132  0.59945912  0.20819160     0.01300
C1045       C  0.53197540  0.59243718  0.24603372    -0.10800
C1046       C  0.52513349  0.60029065  0.28482315     0.03800
C1047       C  0.50921515  0.61520074  0.28572349    -0.10300
H1048       H  0.49952829  0.61929680  0.17987081     0.09400
H1049       H  0.54350159  0.58019547  0.24533243     0.07000
H1050       H  0.50357795  0.62088954  0.31580900     0.06800
C1051       C  0.87213952  0.67085082  0.24862039     0.03800
C1052       C  0.88809406  0.70107369  0.24772423    -0.12300
C1053       C  0.92246112  0.71886511  0.24702930     0.01300
C1054       C  0.94089018  0.70612387  0.24738622    -0.10800
C1055       C  0.92538455  0.67599079  0.24853029     0.03800
C1056       C  0.89102401  0.65853603  0.24906221    -0.10300
H1057       H  0.87376195  0.71078744  0.24750957     0.09400
H1058       H  0.96740235  0.71972385  0.24787685     0.07000
H1059       H  0.87895016  0.63525700  0.24867498     0.06800
C1060       C  0.98979439  0.84353140  0.24576849     0.03800
C1061       C  0.99888036  0.85902165  0.20752703    -0.12300
C1062       C  0.51510465  0.88918753  0.20767557     0.01300
C1063       C  0.52262635  0.90404470  0.24606211    -0.10800
C1064       C  0.51372492  0.88886278  0.28426173     0.03800
C1065       C  0.99731822  0.85871442  0.28412005    -0.10300
H1066       H  0.99256868  0.84758873  0.17770957     0.09400
H1067       H  0.53474619  0.92735938  0.24618534     0.07000
H1068       H  0.99047413  0.84711628  0.31382962     0.06800
C1069       C  0.92868129  0.76475628  0.27241180    -0.12600
C1070       C  0.93921974  0.75075914  0.24617632     0.09500
C1071       C  0.96620192  0.76746636  0.21944841    -0.12600
C1072       C  0.98241414  0.79754253  0.21908307    -0.12600
C1073       C  0.97215209  0.81156862  0.24566935     0.09500
C1074       C  0.94507632  0.79487100  0.27229620    -0.12600
H1075       H  0.90810584  0.75243462  0.29354870     0.13500
H1076       H  0.97465210  0.75722937  0.19861227     0.13500
H1077       H  0.50333056  0.80989264  0.19846472     0.13500
H1078       H  0.93644428  0.80511322  0.29281624     0.13500
C1079       C  0.95459968  0.62652618  0.27598180    -0.12600
C1080       C  0.98160908  0.63669513  0.24892912     0.09500
C1081       C  0.49032269  0.66011303  0.22215724    -0.12600
C1082       C  0.97231918  0.67310758  0.22237631    -0.12600
C1083       C  0.94502321  0.66270363  0.24903427     0.09500
C1084       C  0.93640640  0.63932606  0.27591461    -0.12600
H1085       H  0.94720206  0.60831891  0.29664363     0.13500
H1086       H  0.51114295  0.66840725  0.20116012     0.13500
H1087       H  0.97936193  0.69095137  0.20111384     0.13500
H1088       H  0.91568419  0.63104974  0.29707568     0.13500
C1089       C  0.78288925  0.64046954  0.22240195    -0.12600
C1090       C  0.76679816  0.61562840  0.24780206     0.09500
C1091       C  0.78548444  0.60926248  0.27384672    -0.12600
C1092       C  0.81962274  0.62724914  0.27423363    -0.12600
C1093       C  0.83580742  0.65206928  0.24871931     0.09500
C1094       C  0.81704947  0.65855996  0.22293834    -0.12600
H1095       H  0.76900543  0.64599207  0.20234124     0.13500
H1096       H  0.77367914  0.59014508  0.29354314     0.13500
H1097       H  0.83336845  0.62184684  0.29477397     0.13500
H1098       H  0.82881388  0.67736686  0.20263283     0.13500
C1099       C  0.51992449  0.90427789  0.32341362    -0.12600
C1100       C  0.52423481  0.91859503  0.35444858    -0.14100
C1101       C  0.64294043  0.54988547  0.35388016    -0.12600
C1102       C  0.66058300  0.55840241  0.32345350    -0.14100
C1103       C  0.53200975  0.59092841  0.32366733    -0.12600
C1104       C  0.53565032  0.58035892  0.35482840    -0.14100
C1105       C  0.52218048  0.90496463  0.16863789    -0.12600
C1106       C  0.52680369  0.91960738  0.13783416    -0.14100
C1107       C  0.52757724  0.58922678  0.16863329    -0.12600
C1108       C  0.53043392  0.57834791  0.13727128    -0.14100
C1109       C  0.64362670  0.55238072  0.13888369    -0.12600
C1110       C  0.66128574  0.56100894  0.16933406    -0.14100
C1111       C  0.92755930  0.95172441  0.63897025    -0.12600
C1112       C  0.90980964  0.94294027  0.66934120    -0.14100
C1113       C  0.92792503  0.95323031  0.85390859    -0.12600
C1114       C  0.91025215  0.94455455  0.82349310    -0.14100
C1115       C  0.75124525  0.87663285  0.77434623    -0.12600
C1116       C  0.73498237  0.85189951  0.74867264     0.09500
C1117       C  0.75367251  0.84552739  0.72255281    -0.12600
C1118       C  0.78783641  0.86363629  0.72183323    -0.12600
C1119       C  0.80402199  0.88835402  0.74745720     0.09500
C1120       C  0.78540034  0.89461812  0.77382544    -0.12600
H1121       H  0.73754594  0.88195819  0.79511107     0.13500
H1122       H  0.74184114  0.82679436  0.70212155     0.13500
H1123       H  0.80165564  0.85818749  0.70151347     0.13500
H1124       H  0.79727373  0.91363453  0.79371179     0.13500
C1125       C  0.54275646  0.91445917  0.66874422    -0.12600
C1126       C  0.53983214  0.92519558  0.63725484    -0.14100
C1127       C  0.53872729  0.91300752  0.82382882    -0.12600
C1128       C  0.53507795  0.92357715  0.85496304    -0.14100
C1129       C  0.58082511  0.84432616  0.72192866    -0.12600
C1130       C  0.58950724  0.86763032  0.74891992     0.09500
C1131       C  0.61638847  0.87759881  0.77612438    -0.12600
C1132       C  0.63447504  0.86469990  0.77600300    -0.12600
C1133       C  0.62589274  0.84144491  0.74889144     0.09500
C1134       C  0.59873768  0.83125263  0.72206704    -0.12600
H1135       H  0.56008775  0.83617032  0.70082955     0.13500
H1136       H  0.62376132  0.89571215  0.79696049     0.13500
H1137       H  0.65509341  0.87280569  0.79729337     0.13500
H1138       H  0.59172674  0.81350507  0.70063641     0.13500
C1139       C  0.54880299  0.59898075  0.66854443    -0.12600
C1140       C  0.54429608  0.58438098  0.63773136    -0.14100
C1141       C  0.54692949  0.58551419  0.85450097    -0.12600
C1142       C  0.55121261  0.59975305  0.82337216    -0.14100
C1143       C  0.58812382  0.70634664  0.71931143    -0.12600
C1144       C  0.59866456  0.69237663  0.74554874     0.09500
C1145       C  0.62586413  0.70911927  0.77194904    -0.12600
C1146       C  0.64214918  0.73922869  0.77212660    -0.12600
C1147       C  0.63140927  0.75319707  0.74614876     0.09500
C1148       C  0.60423380  0.73642273  0.71973008    -0.12600
H1149       H  0.56708742  0.69394977  0.69890299     0.13500
H1150       H  0.63467877  0.69891450  0.79224222     0.13500
H1151       H  0.66283151  0.75156797  0.79308621     0.13500
H1152       H  0.59558567  0.74660266  0.69910495     0.13500
loop_ 
_geom_bond_atom_site_label_1 
_geom_bond_atom_site_label_2 
_geom_bond_distance 
_geom_bond_site_symmetry_2 
_ccdc_geom_bond_type 
C1            C2   1.407       .  A
C1            C6   1.409       .  A
C1          C280   1.483       .  S
C2            C3   1.399       .  A
C2            H7   1.084       .  S
C3            C4   1.400       .  A
C3          C278   1.440       .  S
C4            C5   1.400       .  A
C4            H8   1.085       .  S
C5            C6   1.402       .  A
C5          C275   1.443       .  S
C6            H9   1.084       .  S
C10          C11   1.406       .  A
C10          C15   1.406       .  A
C10         C266   1.480       .  S
C11          C12   1.400       .  A
C11          H16   1.084       .  S
C12          C13   1.402       .  A
C12         C263   1.442       .  S
C13          C14   1.402       .  A
C13          H17   1.085       .  S
C14          C15   1.399       .  A
C14         C261   1.442       .  S
C15          H18   1.084       .  S
C19          C20   1.405       .  A
C19          C24   1.406       .  A
C19         C252   1.486       .  S
C20          C21   1.404       .  A
C20          H25   1.083       .  S
C21          C22   1.404       .  A
C21         C269   1.483       .  S
C22          C23   1.405       .  A
C22          H26   1.083       .  S
C23          C24   1.406       .  A
C23         C283   1.485       .  S
C24          H27   1.083       .  S
C28          C29   1.407       .  A
C28          C33   1.408       .  A
C28         C255   1.482       .  S
C29          C30   1.399       .  A
C29          H34   1.084       .  S
C30          C31   1.397       .  A
C30         C250   1.437       .  S
C31          C32   1.397       .  A
C31          H35   1.085       .  S
C32          C33   1.401       .  A
C32         C248   1.438       .  S
C33          H36   1.084       .  S
Zr37         O40   2.428       .  S
Zr37        O327   2.424       .  S
Zr37        O331   2.419       .  S
Zr37         O45   2.378       .  S
Zr37         O47   2.401   1_455  S
Zr37        O334   2.380       .  S
Zr37        O336   2.399       .  S
Zr37        O614   2.440       .  S
O38        Zr613   2.440       .  S
O38          H94   0.990       .  S
O38         H102   0.990       .  S
O39        Zr325   2.424       .  S
O39          C59   1.281       .  A
O40          C61   1.282       .  A
O41         Zr51   2.443   1_554  S
O41          C60   1.286       .  A
O42         Zr50   2.442   1_554  S
O42          C61   1.284       .  A
O43        Zr325   2.419       .  S
O43          C60   1.281       .  A
O44         Zr52   2.428   1_554  S
O44          C59   1.281       .  A
O45         Zr50   2.396   1_554  S
O45        Zr340   2.378   1_554  S
O46         Zr51   2.392   1_554  S
O46         Zr52   2.375   1_554  S
O46        Zr325   2.380       .  S
O46          H81   0.966       .  S
O47         Zr50   2.399   1_654  S
O47        Zr643   2.396   1_554  S
O47         H660   0.966       .  S
O48         Zr51   2.393   1_554  S
O48        Zr325   2.399       .  S
O48        Zr931   2.395   1_444  S
Zr49         O76   2.421       .  S
Zr49        O932   2.422   1_445  S
Zr49        O352   2.418   1_545  S
Zr49         O55   2.397       .  S
Zr49         O58   2.380       .  S
Zr49        O344   2.401   1_545  S
Zr49        O345   2.378   1_445  S
Zr49         O74   2.444       .  S
Zr50         O63   2.445       .  S
Zr50         O56   2.398       .  S
Zr50         O57   2.388   1_455  S
Zr50         O62   2.435       .  S
Zr50        O645   2.437   1_455  S
Zr51         O77   2.442       .  S
Zr51         O55   2.395       .  S
Zr51         O58   2.387       .  S
Zr51         O53   2.436   1_455  S
Zr51         O75   2.437       .  S
Zr52         O55   2.398       .  S
Zr52        O333   2.378   1_546  S
Zr52        O344   2.397   1_545  S
Zr52         O78   2.435       .  S
Zr52         O79   2.436       .  S
Zr52         O54   2.437       .  S
O53          H90   0.990   1_655  S
O54          H85   0.990   1_556  S
O54         H387   0.990   1_556  S
O56        Zr337   2.401       .  S
O56        Zr340   2.397       .  S
O56          H82   0.966       .  S
O57        Zr337   2.378   1_655  S
O57        Zr643   2.375       .  S
O58        Zr931   2.379   1_445  S
O58          H83   0.966   1_455  S
C59         C245   1.433       .  S
C60         C244   1.436       .  S
C61         C242   1.437       .  S
O62          H98   0.990   1_556  S
O63          C65   1.286       .  A
O64        Zr337   2.418       .  S
O64          C65   1.281       .  A
C65         C264   1.436       .  S
O66         Zr67   2.440   1_554  S
O66          H95   0.990       .  S
Zr67         O72   2.431       .  S
Zr67        O623   2.396   1_556  S
Zr67        O912   2.395   1_556  S
Zr67        O633   2.375       .  S
Zr67        O922   2.379       .  S
Zr67         O70   2.437       .  S
Zr67         O71   2.438       .  S
O68        Zr913   2.422       .  S
O68          C73   1.281       .  A
O69        Zr626   2.437       .  S
O69          H86   0.990   1_556  S
O69         H101   0.990   1_556  S
O70          H87   0.990       .  S
O71          H91   0.990       .  S
O71         H388   0.990       .  S
O72          C73   1.282       .  A
C73         C249   1.432       .  S
O74          H93   0.990       .  S
O74          H97   0.990       .  S
O75          H89   0.990   1_556  S
O75          H96   0.990   1_556  S
O76          C80   1.281       .  A
O77          C80   1.285       .  A
O78          H88   0.990   1_556  S
O79          H92   0.990       .  S
C80         C277   1.435       .  S
H84         O623   0.966       .  S
H99         O342   0.990   1_554  S
H100        O359   0.990   1_545  S
Zr103       O106   2.428       .  S
Zr103       O969   2.423   1_445  S
Zr103       O397   2.419   1_545  S
Zr103       O111   2.379       .  S
Zr103       O113   2.401       .  S
Zr103       O400   2.380   1_445  S
Zr103       O402   2.399   1_545  S
Zr103       O104   2.440       .  S
O104        H160   0.990       .  S
O104        H168   0.990       .  S
O105       Zr967   2.423       .  S
O105        C125   1.281       .  A
O106        C127   1.282       .  A
O107       Zr117   2.444       .  S
O107        C126   1.286       .  A
O108       Zr116   2.442       .  S
O108        C127   1.285       .  A
O109       Zr391   2.419       .  S
O109        C126   1.281       .  A
O110       Zr118   2.428       .  S
O110        C125   1.281       .  A
O111       Zr116   2.396       .  S
O111       Zr982   2.378   1_445  S
O112       Zr117   2.392   1_655  S
O112       Zr391   2.380   1_655  S
O112       Zr694   2.374       .  S
O112        H723   0.966       .  S
O113       Zr116   2.399       .  S
O113       Zr133   2.394       .  S
O113        H150   0.966       .  S
O114       Zr117   2.394       .  S
O114       Zr391   2.399       .  S
O114       Zr421   2.396       .  S
Zr115       O142   2.421       .  S
Zr115       O422   2.420       .  S
Zr115       O418   2.419       .  S
Zr115       O121   2.397   1_455  S
Zr115       O124   2.380       .  S
Zr115       O410   2.401       .  S
Zr115       O411   2.378       .  S
Zr115       O716   2.444       .  S
Zr116       O129   2.445       .  S
Zr116       O122   2.398       .  S
Zr116       O123   2.388       .  S
Zr116       O135   2.437       .  S
Zr116       O128   2.435   1_455  S
Zr117       O143   2.442       .  S
Zr117       O121   2.395   1_455  S
Zr117       O124   2.386       .  S
Zr117       O119   2.435       .  S
Zr117       O717   2.437   1_455  S
Zr118       O975   2.378       .  S
Zr118       O688   2.374       .  S
Zr118       O697   2.398       .  S
Zr118       O986   2.397       .  S
Zr118       O144   2.435       .  S
Zr118       O145   2.436       .  S
Zr118       O120   2.436       .  S
O119        H156   0.990       .  S
O120        H151   0.990       .  S
O120        H453   0.990       .  S
O121       Zr694   2.398       .  S
O122       Zr403   2.401       .  S
O122       Zr982   2.397   1_445  S
O122        H724   0.966   1_455  S
O123       Zr133   2.376       .  S
O123       Zr403   2.378       .  S
O124       Zr421   2.379       .  S
O124        H149   0.966       .  S
C125        C247   1.433       .  S
C126        C262   1.436       .  S
C127        C276   1.438       .  S
O128        H740   0.990       .  S
O129        C131   1.286       .  A
O130       Zr403   2.419       .  S
O130        C131   1.281       .  A
C131        C240   1.436       .  S
O132       Zr133   2.440       .  S
O132        H161   0.990       .  S
Zr133       O138   2.430       .  S
Zr133       O402   2.396   1_545  S
Zr133       O412   2.379   1_545  S
Zr133       O136   2.437       .  S
Zr133       O137   2.438       .  S
O134       Zr403   2.420       .  S
O134        C139   1.281       .  A
O135        H152   0.990       .  S
O135        H167   0.990       .  S
O136        H153   0.990       .  S
O137        H157   0.990       .  S
O137        H454   0.990   1_545  S
O138        C139   1.282       .  A
C139        C237   1.431       .  S
O140       Zr691   2.444       .  S
O140        H159   0.990       .  S
O140        H163   0.990       .  S
O141       Zr693   2.437       .  S
O141        H155   0.990       .  S
O141        H162   0.990       .  S
O142        C146   1.281       .  A
O143        C146   1.285       .  A
O144        H154   0.990       .  S
O145        H158   0.990       .  S
C146        C236   1.435       .  S
H147        O688   0.966       .  S
H148        O698   0.966       .  S
H164        O704   0.990       .  S
H165        O408   0.990   1_545  S
H166        O425   0.990       .  S
C169        C170   1.407       .  A
C169        C174   1.408       .  A
C169        C226   1.481       .  S
C170        C171   1.399       .  A
C170        H175   1.084       .  S
C171        C172   1.397       .  A
C171        C238   1.436       .  S
C172        C173   1.397       .  A
C172        H176   1.085       .  S
C173        C174   1.401       .  A
C173        C246   1.438       .  S
C174        H177   1.084       .  S
C178        C179   1.406       .  A
C178        C183   1.406       .  A
C178        C792   1.480   1_455  S
C179        C180   1.400       .  A
C179        H184   1.084   1_455  S
C180        C181   1.402       .  A
C180        C243   1.442       .  S
C181        C182   1.402       .  A
C181        H185   1.085       .  S
C182        C183   1.400       .  A
C182        C239   1.442       .  S
C183        H186   1.084       .  S
C187        C188   1.405       .  A
C187        C192   1.405       .  A
C187        C229   1.485       .  S
C188        C189   1.405       .  A
C188        H193   1.083       .  S
C189        C190   1.404       .  A
C189        C206   1.483       .  S
C190        C191   1.403       .  A
C190        H194   1.083       .  S
C191        C192   1.404       .  A
C191        C219   1.483       .  S
C192        H195   1.083       .  S
C196        C197   1.408       .  A
C196        C201   1.407       .  A
C196        C209   1.483       .  S
C197        C774   1.401       .  A
C197        H202   1.084       .  S
C198        C199   1.400       .  A
C198        C773   1.401   1_455  A
C198        C241   1.442       .  S
C199        C200   1.400       .  A
C199        H203   1.085       .  S
C200        C777   1.400   1_455  A
C200        C235   1.441       .  S
C201        C776   1.400       .  A
C201        H204   1.084       .  S
C205        C206   1.405       .  A
C205        C210   1.398       .  A
C205        H211   1.083       .  S
C206        C207   1.405       .  A
C207        C208   1.397       .  A
C207        H212   1.083       .  S
C208        C209   1.404       .  A
C208        H789   1.083       .  S
C209        C210   1.406       .  A
C210        H214   1.083       .  S
H213        C784   1.083   1_455  S
C215        C216   1.405       .  A
C215        C220   1.397       .  A
C215        H221   1.083       .  S
C216        C793   1.404       .  A
C216        C754   1.480       .  S
C217        C792   1.404       .  A
C217        C794   1.398       .  A
C217        H222   1.083   1_655  S
C218        C219   1.406       .  A
C218        C793   1.398       .  A
C218        H223   1.083       .  S
C219        C220   1.405       .  A
C220        H224   1.083       .  S
C225        C226   1.404       .  A
C225        C230   1.398       .  A
C225        H231   1.083       .  S
C226        C227   1.404       .  A
C227        C228   1.397       .  A
C227        H232   1.083       .  S
C228        C229   1.406       .  A
C228        H233   1.083       .  S
C229        C230   1.406       .  A
C230        H234   1.083       .  S
C235        C236   1.206       .  T
C237        C238   1.203       .  T
C239        C240   1.207       .  T
C241        C242   1.207       .  T
C243        C244   1.207       .  T
C245        C246   1.205       .  T
C247        C248   1.205       .  T
C249        C250   1.204       .  T
C251        C252   1.406       .  A
C251        C256   1.397       .  A
C251        H257   1.083       .  S
C252        C253   1.406       .  A
C253        C254   1.398       .  A
C253        H258   1.083       .  S
C254        C255   1.404       .  A
C254        H259   1.083       .  S
C255        C256   1.404       .  A
C256        H260   1.083       .  S
C261        C262   1.207       .  T
C263        C264   1.207       .  T
C265        C266   1.404       .  A
C265        C270   1.397       .  A
C265        H271   1.083       .  S
C266        C267   1.404       .  A
C267        C268   1.397       .  A
C267        H272   1.083       .  S
C268        C269   1.405       .  A
C268        H273   1.083       .  S
C269        C270   1.405       .  A
C270        H274   1.083       .  S
C275        C276   1.208       .  T
C277        C278   1.206       .  T
C279        C280   1.404       .  A
C279        C284   1.397       .  A
C279        H285   1.083       .  S
C280        C281   1.406       .  A
C281        C282   1.398       .  A
C281        H286   1.083       .  S
C282        C283   1.406       .  A
C282        H287   1.083       .  S
C283        C284   1.406       .  A
C284        H288   1.083       .  S
C289        C290   1.407       .  A
C289        C294   1.409       .  A
C289        C568   1.483       .  S
C290        C291   1.399       .  A
C290        H295   1.084       .  S
C291        C292   1.400       .  A
C291        C566   1.441       .  S
C292        C293   1.400       .  A
C292        H296   1.085       .  S
C293        C294   1.402       .  A
C293        C563   1.443       .  S
C294        H297   1.084       .  S
C298        C299   1.406       .  A
C298        C303   1.406       .  A
C298        C554   1.480       .  S
C299        C300   1.400       .  A
C299        H304   1.084       .  S
C300        C301   1.402       .  A
C300        C551   1.442       .  S
C301        C302   1.402       .  A
C301        H305   1.085       .  S
C302        C303   1.399       .  A
C302        C549   1.442       .  S
C303        H306   1.084       .  S
C307        C308   1.404       .  A
C307        C312   1.406       .  A
C307        C540   1.486       .  S
C308        C309   1.404       .  A
C308        H313   1.083       .  S
C309        C310   1.404       .  A
C309        C557   1.483       .  S
C310        C311   1.405       .  A
C310        H314   1.083       .  S
C311        C312   1.406       .  A
C311        C571   1.485       .  S
C312        H315   1.083       .  S
C316        C317   1.407       .  A
C316        C321   1.408       .  A
C316        C543   1.482       .  S
C317        C318   1.399       .  A
C317        H322   1.084       .  S
C318        C319   1.397       .  A
C318        C538   1.437       .  S
C319        C320   1.397       .  A
C319        H323   1.085       .  S
C320        C321   1.401       .  A
C320        C536   1.438       .  S
C321        H324   1.084       .  S
Zr325       O328   2.428   1_545  S
Zr325       O333   2.378   1_545  S
Zr325       O335   2.401   1_445  S
Zr325       O902   2.440   1_545  S
O326       Zr901   2.440   1_565  S
O326        H382   0.990       .  S
O326        H390   0.990       .  S
O327        C347   1.281       .  A
O328        C349   1.282       .  A
O329       Zr339   2.443   1_554  S
O329        C348   1.286       .  A
O330       Zr338   2.442   1_554  S
O330        C349   1.284       .  A
O331        C348   1.281       .  A
O332       Zr340   2.428   1_554  S
O332        C347   1.281       .  A
O333       Zr338   2.396   1_554  S
O334       Zr339   2.392   1_554  S
O334       Zr340   2.374   1_554  S
O334        H369   0.966       .  S
O335       Zr338   2.399   1_654  S
O335       Zr931   2.396   1_554  S
O335        H948   0.966       .  S
O336       Zr339   2.393   1_554  S
O336       Zr643   2.395   1_454  S
Zr337       O644   2.422   1_455  S
Zr337       O364   2.421       .  S
Zr337       O343   2.397       .  S
Zr337       O346   2.380       .  S
Zr337       O362   2.444       .  S
Zr338       O351   2.445       .  S
Zr338       O344   2.398       .  S
Zr338       O345   2.388   1_455  S
Zr338       O933   2.437   1_455  S
Zr338       O350   2.435       .  S
Zr339       O365   2.442       .  S
Zr339       O343   2.395       .  S
Zr339       O346   2.387       .  S
Zr339       O341   2.436   1_455  S
Zr339       O363   2.437       .  S
Zr340       O343   2.398       .  S
Zr340       O366   2.435       .  S
Zr340       O367   2.436       .  S
Zr340       O342   2.437       .  S
O341        H378   0.990   1_655  S
O342        H373   0.990   1_556  S
O344        H370   0.966       .  S
O345       Zr931   2.375       .  S
O346       Zr643   2.379   1_455  S
O346        H371   0.966   1_455  S
C347        C533   1.433       .  S
C348        C532   1.436       .  S
C349        C530   1.437       .  S
O350        H386   0.990   1_556  S
O351        C353   1.286       .  A
O352        C353   1.281       .  A
C353        C552   1.436       .  S
O354       Zr355   2.440   1_554  S
O354        H383   0.990       .  S
Zr355       O360   2.431       .  S
Zr355       O911   2.396   1_556  S
Zr355       O624   2.395   1_566  S
Zr355       O921   2.375       .  S
Zr355       O634   2.379   1_565  S
Zr355       O358   2.437       .  S
Zr355       O359   2.438       .  S
O356       Zr625   2.422   1_565  S
O356        C361   1.281       .  A
O357       Zr914   2.437       .  S
O357        H374   0.990   1_556  S
O357        H389   0.990   1_556  S
O358        H375   0.990       .  S
O359        H379   0.990       .  S
O360        C361   1.282       .  A
C361        C537   1.432       .  S
O362        H381   0.990       .  S
O362        H385   0.990       .  S
O363        H377   0.990   1_556  S
O363        H384   0.990   1_556  S
O364        C368   1.281       .  A
O365        C368   1.285       .  A
O366        H376   0.990   1_556  S
O367        H380   0.990       .  S
C368        C565   1.435       .  S
H372        O911   0.966       .  S
Zr391       O681   2.423   1_455  S
Zr391       O394   2.428       .  S
Zr391       O399   2.378       .  S
Zr391       O401   2.401       .  S
Zr391       O392   2.440       .  S
O392        H448   0.990       .  S
O392        H456   0.990       .  S
O393       Zr679   2.423   1_565  S
O393        C413   1.281       .  A
O394        C415   1.282       .  A
O395       Zr405   2.444       .  S
O395        C414   1.286       .  A
O396       Zr404   2.442       .  S
O396        C415   1.285       .  A
O397        C414   1.281       .  A
O398       Zr406   2.428       .  S
O398        C413   1.281       .  A
O399       Zr404   2.396       .  S
O399       Zr694   2.378   1_455  S
O400       Zr405   2.392   1_655  S
O400       Zr982   2.374       .  S
O400       H1011   0.966       .  S
O401       Zr404   2.399       .  S
O401       Zr421   2.394       .  S
O401        H438   0.966       .  S
O402       Zr405   2.394       .  S
Zr403       O430   2.421   1_545  S
Zr403       O409   2.397   1_445  S
Zr403       O412   2.380   1_545  S
Zr403      O1004   2.444   1_545  S
Zr404       O417   2.445       .  S
Zr404       O410   2.398       .  S
Zr404       O411   2.388       .  S
Zr404       O423   2.436       .  S
Zr404       O416   2.435   1_455  S
Zr405       O431   2.441       .  S
Zr405       O409   2.395   1_455  S
Zr405       O412   2.386       .  S
Zr405       O407   2.435       .  S
Zr405      O1005   2.437   1_455  S
Zr406       O687   2.378   1_565  S
Zr406       O976   2.374       .  S
Zr406       O985   2.398       .  S
Zr406       O698   2.397   1_565  S
Zr406       O432   2.435       .  S
Zr406       O433   2.436       .  S
Zr406       O408   2.436       .  S
O407        H444   0.990       .  S
O408        H439   0.990       .  S
O409       Zr982   2.398       .  S
O410       Zr694   2.397   1_455  S
O410       H1012   0.966   1_455  S
O411       Zr421   2.376       .  S
O412        H437   0.966       .  S
C413        C535   1.433       .  S
C414        C550   1.436       .  S
C415        C564   1.438       .  S
O416       H1028   0.990       .  S
O417        C419   1.286       .  A
O418        C419   1.281       .  A
C419        C528   1.436       .  S
O420       Zr421   2.440       .  S
O420        H449   0.990       .  S
Zr421       O426   2.430       .  S
Zr421       O424   2.437       .  S
Zr421       O425   2.438       .  S
O422        C427   1.281       .  A
O423        H440   0.990       .  S
O423        H455   0.990       .  S
O424        H441   0.990       .  S
O425        H445   0.990       .  S
O426        C427   1.282       .  A
C427        C525   1.431       .  S
O428       Zr979   2.444   1_565  S
O428        H447   0.990       .  S
O428        H451   0.990       .  S
O429       Zr981   2.437       .  S
O429        H443   0.990       .  S
O429        H450   0.990       .  S
O430        C434   1.281       .  A
O431        C434   1.285       .  A
O432        H442   0.990       .  S
O433        H446   0.990       .  S
C434        C524   1.435       .  S
H435        O976   0.966       .  S
H436        O986   0.966       .  S
H452        O992   0.990       .  S
C457        C458   1.407       .  A
C457        C462   1.408       .  A
C457        C514   1.481       .  S
C458        C459   1.399       .  A
C458        H463   1.084       .  S
C459        C460   1.397       .  A
C459        C526   1.436       .  S
C460        C461   1.397       .  A
C460        H464   1.085       .  S
C461        C462   1.401       .  A
C461        C534   1.438       .  S
C462        H465   1.084       .  S
C466        C467   1.406       .  A
C466        C471   1.406       .  A
C466       C1080   1.480   1_455  S
C467        C468   1.400       .  A
C467        H472   1.084   1_455  S
C468        C469   1.402       .  A
C468        C531   1.442       .  S
C469        C470   1.402       .  A
C469        H473   1.085       .  S
C470        C471   1.400       .  A
C470        C527   1.442       .  S
C471        H474   1.084       .  S
C475        C476   1.405       .  A
C475        C480   1.405       .  A
C475        C517   1.485       .  S
C476        C477   1.405       .  A
C476        H481   1.083       .  S
C477        C478   1.404       .  A
C477        C494   1.483       .  S
C478        C479   1.403       .  A
C478        H482   1.083       .  S
C479        C480   1.404       .  A
C479        C507   1.483       .  S
C480        H483   1.083       .  S
C484        C485   1.408       .  A
C484        C489   1.407       .  A
C484        C497   1.483       .  S
C485       C1062   1.401       .  A
C485        H490   1.084       .  S
C486       C1061   1.401   1_455  A
C486        C487   1.400       .  A
C486        C529   1.442       .  S
C487        C488   1.400       .  A
C487        H491   1.085       .  S
C488       C1065   1.400   1_455  A
C488        C523   1.441       .  S
C489       C1064   1.400       .  A
C489        H492   1.084       .  S
C493        C494   1.405       .  A
C493        C498   1.398       .  A
C493        H499   1.083       .  S
C494        C495   1.405       .  A
C495        C496   1.397       .  A
C495        H500   1.083       .  S
C496        C497   1.404       .  A
C496       H1077   1.083       .  S
C497        C498   1.406       .  A
C498        H502   1.083       .  S
H501       C1072   1.083   1_455  S
C503        C504   1.405       .  A
C503        C508   1.397       .  A
C503        H509   1.083       .  S
C504       C1081   1.404       .  A
C504       C1042   1.480       .  S
C505       C1080   1.404       .  A
C505       C1082   1.398       .  A
C505        H510   1.083   1_655  S
C506       C1081   1.398       .  A
C506        C507   1.406       .  A
C506        H511   1.083       .  S
C507        C508   1.405       .  A
C508        H512   1.083       .  S
C513        C514   1.404       .  A
C513        C518   1.398       .  A
C513        H519   1.083       .  S
C514        C515   1.404       .  A
C515        C516   1.397       .  A
C515        H520   1.083       .  S
C516        C517   1.406       .  A
C516        H521   1.083       .  S
C517        C518   1.406       .  A
C518        H522   1.083       .  S
C523        C524   1.206       .  T
C525        C526   1.203       .  T
C527        C528   1.207       .  T
C529        C530   1.207       .  T
C531        C532   1.207       .  T
C533        C534   1.205       .  T
C535        C536   1.205       .  T
C537        C538   1.204       .  T
C539        C540   1.406       .  A
C539        C544   1.397       .  A
C539        H545   1.083       .  S
C540        C541   1.406       .  A
C541        C542   1.398       .  A
C541        H546   1.083       .  S
C542        C543   1.404       .  A
C542        H547   1.083       .  S
C543        C544   1.404       .  A
C544        H548   1.083       .  S
C549        C550   1.207       .  T
C551        C552   1.207       .  T
C553        C554   1.404       .  A
C553        C558   1.397       .  A
C553        H559   1.083       .  S
C554        C555   1.404       .  A
C555        C556   1.397       .  A
C555        H560   1.083       .  S
C556        C557   1.405       .  A
C556        H561   1.083       .  S
C557        C558   1.405       .  A
C558        H562   1.083       .  S
C563        C564   1.208       .  T
C565        C566   1.206       .  T
C567        C568   1.404       .  A
C567        C572   1.397       .  A
C567        H573   1.083       .  S
C568        C569   1.406       .  A
C569        C570   1.398       .  A
C569        H574   1.083       .  S
C570        C571   1.406       .  A
C570        H575   1.083       .  S
C571        C572   1.406       .  A
C572        H576   1.083       .  S
C577        C578   1.407       .  A
C577        C582   1.409       .  A
C577        C856   1.483       .  S
C578        C579   1.399       .  A
C578        H583   1.084       .  S
C579        C580   1.400       .  A
C579        C854   1.440       .  S
C580        C581   1.400       .  A
C580        H584   1.085       .  S
C581        C582   1.402       .  A
C581        C851   1.443       .  S
C582        H585   1.084       .  S
C586        C587   1.406       .  A
C586        C591   1.406       .  A
C586        C842   1.480       .  S
C587        C588   1.400       .  A
C587        H592   1.084       .  S
C588        C589   1.402       .  A
C588        C839   1.442       .  S
C589        C590   1.402       .  A
C589        H593   1.085       .  S
C590        C591   1.399       .  A
C590        C837   1.442       .  S
C591        H594   1.084       .  S
C595        C596   1.405       .  A
C595        C600   1.406       .  A
C595        C828   1.486       .  S
C596        C597   1.404       .  A
C596        H601   1.083       .  S
C597        C598   1.404       .  A
C597        C845   1.483       .  S
C598        C599   1.405       .  A
C598        H602   1.083       .  S
C599        C600   1.406       .  A
C599        C859   1.485       .  S
C600        H603   1.083       .  S
C604        C605   1.407       .  A
C604        C609   1.408       .  A
C604        C831   1.482       .  S
C605        C606   1.399       .  A
C605        H610   1.084       .  S
C606        C607   1.397       .  A
C606        C826   1.437       .  S
C607        C608   1.397       .  A
C607        H611   1.085       .  S
C608        C609   1.401       .  A
C608        C824   1.438       .  S
C609        H612   1.084       .  S
Zr613       O903   2.424       .  S
Zr613       O616   2.428       .  S
Zr613       O907   2.419       .  S
Zr613       O621   2.378       .  S
Zr613       O910   2.380       .  S
Zr613       O623   2.401       .  S
Zr613       O912   2.399       .  S
O614        H670   0.990       .  S
O614        H678   0.990   1_455  S
O615       Zr901   2.424       .  S
O615        C635   1.281       .  A
O616        C637   1.282       .  A
O617       Zr627   2.443   1_554  S
O617        C636   1.286       .  A
O618       Zr626   2.442   1_554  S
O618        C637   1.284       .  A
O619       Zr901   2.419       .  S
O619        C636   1.281       .  A
O620       Zr628   2.428   1_554  S
O620        C635   1.281       .  A
O621       Zr626   2.396   1_554  S
O621       Zr916   2.378   1_554  S
O622       Zr901   2.380       .  S
O622       Zr627   2.392   1_554  S
O622       Zr628   2.375   1_554  S
O622        H657   0.966       .  S
O623       Zr626   2.399   1_554  S
O624       Zr901   2.399       .  S
O624       Zr627   2.393   1_554  S
Zr625       O652   2.421       .  S
Zr625       O928   2.418   1_545  S
Zr625       O631   2.397       .  S
Zr625       O920   2.401   1_545  S
Zr625       O921   2.378   1_545  S
Zr625       O634   2.380       .  S
Zr625       O650   2.444       .  S
Zr626       O639   2.445       .  S
Zr626       O632   2.398       .  S
Zr626       O633   2.388       .  S
Zr626       O638   2.435       .  S
Zr627       O653   2.442       .  S
Zr627       O631   2.395       .  S
Zr627       O634   2.387       .  S
Zr627       O629   2.436       .  S
Zr627       O651   2.437       .  S
Zr628       O909   2.378   1_546  S
Zr628       O631   2.398       .  S
Zr628       O920   2.397   1_545  S
Zr628       O654   2.435       .  S
Zr628       O655   2.436       .  S
Zr628       O630   2.437       .  S
O629        H666   0.990       .  S
O630        H661   0.990   1_556  S
O630        H963   0.990   1_556  S
O632       Zr913   2.401       .  S
O632       Zr916   2.397       .  S
O632        H658   0.966       .  S
O633       Zr913   2.378       .  S
O634        H659   0.966       .  S
C635        C821   1.433       .  S
C636        C820   1.436       .  S
C637        C818   1.437       .  S
O638        H674   0.990   1_556  S
O639        C641   1.286       .  A
O640       Zr913   2.418       .  S
O640        C641   1.281       .  A
C641        C840   1.436       .  S
O642       Zr643   2.440   1_554  S
O642        H671   0.990       .  S
Zr643       O648   2.431       .  S
Zr643       O646   2.437       .  S
Zr643       O647   2.438       .  S
O644        C649   1.281       .  A
O645        H662   0.990   1_556  S
O645        H677   0.990   1_556  S
O646        H663   0.990       .  S
O647        H667   0.990       .  S
O647        H964   0.990       .  S
O648        C649   1.282       .  A
C649        C825   1.432       .  S
O650        H669   0.990       .  S
O650        H673   0.990       .  S
O651        H665   0.990   1_556  S
O651        H672   0.990   1_556  S
O652        C656   1.281       .  A
O653        C656   1.285       .  A
O654        H664   0.990   1_556  S
O655        H668   0.990       .  S
C656        C853   1.435       .  S
H675        O918   0.990   1_554  S
H676        O935   0.990   1_545  S
Zr679       O682   2.428       .  S
Zr679       O973   2.419   1_545  S
Zr679       O687   2.379       .  S
Zr679       O976   2.380   1_545  S
Zr679       O689   2.401       .  S
Zr679       O978   2.399   1_545  S
Zr679       O680   2.440       .  S
O680        H736   0.990       .  S
O680        H744   0.990       .  S
O681        C701   1.281       .  A
O682        C703   1.282       .  A
O683       Zr693   2.444       .  S
O683        C702   1.286       .  A
O684       Zr692   2.442       .  S
O684        C703   1.285       .  A
O685       Zr967   2.419       .  S
O685        C702   1.281       .  A
O686       Zr694   2.428       .  S
O686        C701   1.281       .  A
O687       Zr692   2.396       .  S
O688       Zr967   2.380       .  S
O688       Zr693   2.392       .  S
O689       Zr692   2.399       .  S
O689       Zr709   2.394       .  S
O689        H726   0.966       .  S
O690       Zr967   2.399       .  S
O690       Zr693   2.394       .  S
O690       Zr997   2.396       .  S
Zr691       O998   2.420       .  S
Zr691       O718   2.421       .  S
Zr691       O994   2.419       .  S
Zr691       O697   2.397       .  S
Zr691       O986   2.401       .  S
Zr691       O987   2.378       .  S
Zr691       O700   2.380       .  S
Zr692       O705   2.445       .  S
Zr692       O698   2.398       .  S
Zr692       O699   2.388       .  S
Zr692       O711   2.436       .  S
Zr692       O704   2.435       .  S
Zr693       O719   2.442       .  S
Zr693       O697   2.395       .  S
Zr693       O700   2.386       .  S
Zr693       O695   2.435       .  S
Zr694       O720   2.435       .  S
Zr694       O721   2.436       .  S
Zr694       O696   2.436       .  S
O695        H732   0.990       .  S
O696        H727   0.990       .  S
O696       H1029   0.990       .  S
O698       Zr979   2.401       .  S
O699       Zr979   2.378       .  S
O699       Zr709   2.376       .  S
O700       Zr997   2.379       .  S
O700        H725   0.966       .  S
C701        C823   1.433       .  S
C702        C838   1.436       .  S
C703        C852   1.438       .  S
O705        C707   1.286       .  A
O706       Zr979   2.419       .  S
O706        C707   1.281       .  A
C707        C816   1.436       .  S
O708       Zr709   2.440       .  S
O708        H737   0.990       .  S
Zr709       O714   2.430       .  S
Zr709       O978   2.396   1_545  S
Zr709       O988   2.379   1_545  S
Zr709       O712   2.437       .  S
Zr709       O713   2.438       .  S
O710       Zr979   2.420       .  S
O710        C715   1.281       .  A
O711        H728   0.990       .  S
O711        H743   0.990       .  S
O712        H729   0.990       .  S
O713        H733   0.990       .  S
O713       H1030   0.990   1_545  S
O714        C715   1.282       .  A
C715        C813   1.431       .  S
O716        H735   0.990   1_455  S
O716        H739   0.990   1_455  S
O717        H731   0.990       .  S
O717        H738   0.990       .  S
O718        C722   1.281       .  A
O719        C722   1.285       .  A
O720        H730   0.990       .  S
O721        H734   0.990       .  S
C722        C812   1.435       .  S
H741        O984   0.990   1_545  S
H742       O1001   0.990       .  S
C745        C746   1.407       .  A
C745        C750   1.408       .  A
C745        C802   1.481       .  S
C746        C747   1.399       .  A
C746        H751   1.084       .  S
C747        C748   1.397       .  A
C747        C814   1.436       .  S
C748        C749   1.397       .  A
C748        H752   1.085       .  S
C749        C750   1.401       .  A
C749        C822   1.438       .  S
C750        H753   1.084       .  S
C754        C755   1.406       .  A
C754        C759   1.406       .  A
C755        C756   1.400       .  A
C755        H760   1.084       .  S
C756        C757   1.402       .  A
C756        C819   1.442       .  S
C757        C758   1.402       .  A
C757        H761   1.085       .  S
C758        C759   1.400       .  A
C758        C815   1.442       .  S
C759        H762   1.084       .  S
C763        C764   1.405       .  A
C763        C768   1.405       .  A
C763        C805   1.485       .  S
C764        C765   1.405       .  A
C764        H769   1.083       .  S
C765        C766   1.404       .  A
C765        C782   1.483       .  S
C766        C767   1.403       .  A
C766        H770   1.083       .  S
C767        C768   1.404       .  A
C767        C795   1.483       .  S
C768        H771   1.083       .  S
C772        C773   1.408       .  A
C772        C777   1.407       .  A
C772        C785   1.483       .  S
C773        H778   1.084       .  S
C774        C775   1.400       .  A
C774        C817   1.442       .  S
C775        C776   1.400       .  A
C775        H779   1.085       .  S
C776        C811   1.441       .  S
C777        H780   1.084       .  S
C781        C782   1.405       .  A
C781        C786   1.398       .  A
C781        H787   1.083       .  S
C782        C783   1.405       .  A
C783        C784   1.397       .  A
C783        H788   1.083       .  S
C784        C785   1.404       .  A
C785        C786   1.406       .  A
C786        H790   1.083       .  S
C791        C792   1.405       .  A
C791        C796   1.397       .  A
C791        H797   1.083       .  S
C793        H798   1.083       .  S
C794        C795   1.406       .  A
C794        H799   1.083       .  S
C795        C796   1.405       .  A
C796        H800   1.083       .  S
C801        C802   1.404       .  A
C801        C806   1.398       .  A
C801        H807   1.083       .  S
C802        C803   1.404       .  A
C803        C804   1.397       .  A
C803        H808   1.083       .  S
C804        C805   1.406       .  A
C804        H809   1.083       .  S
C805        C806   1.406       .  A
C806        H810   1.083       .  S
C811        C812   1.206       .  T
C813        C814   1.203       .  T
C815        C816   1.207       .  T
C817        C818   1.207       .  T
C819        C820   1.207       .  T
C821        C822   1.205       .  T
C823        C824   1.205       .  T
C825        C826   1.204       .  T
C827        C828   1.406       .  A
C827        C832   1.397       .  A
C827        H833   1.083       .  S
C828        C829   1.406       .  A
C829        C830   1.398       .  A
C829        H834   1.083       .  S
C830        C831   1.404       .  A
C830        H835   1.083       .  S
C831        C832   1.404       .  A
C832        H836   1.083       .  S
C837        C838   1.207       .  T
C839        C840   1.207       .  T
C841        C842   1.404       .  A
C841        C846   1.397       .  A
C841        H847   1.083       .  S
C842        C843   1.404       .  A
C843        C844   1.397       .  A
C843        H848   1.083       .  S
C844        C845   1.405       .  A
C844        H849   1.083       .  S
C845        C846   1.405       .  A
C846        H850   1.083       .  S
C851        C852   1.208       .  T
C853        C854   1.206       .  T
C855        C856   1.404       .  A
C855        C860   1.397       .  A
C855        H861   1.083       .  S
C856        C857   1.406       .  A
C857        C858   1.398       .  A
C857        H862   1.083       .  S
C858        C859   1.406       .  A
C858        H863   1.083       .  S
C859        C860   1.406       .  A
C860        H864   1.083       .  S
C865        C866   1.407       .  A
C865        C870   1.409       .  A
C865       C1144   1.483       .  S
C866        C867   1.399       .  A
C866        H871   1.084       .  S
C867        C868   1.400       .  A
C867       C1142   1.441       .  S
C868        C869   1.400       .  A
C868        H872   1.085       .  S
C869        C870   1.402       .  A
C869       C1139   1.443       .  S
C870        H873   1.084       .  S
C874        C875   1.406       .  A
C874        C879   1.406       .  A
C874       C1130   1.480       .  S
C875        C876   1.400       .  A
C875        H880   1.084       .  S
C876        C877   1.402       .  A
C876       C1127   1.442       .  S
C877        C878   1.402       .  A
C877        H881   1.085       .  S
C878        C879   1.399       .  A
C878       C1125   1.442       .  S
C879        H882   1.084       .  S
C883        C884   1.404       .  A
C883        C888   1.406       .  A
C883       C1116   1.486       .  S
C884        C885   1.404       .  A
C884        H889   1.083       .  S
C885        C886   1.404       .  A
C885       C1133   1.483       .  S
C886        C887   1.405       .  A
C886        H890   1.083       .  S
C887        C888   1.406       .  A
C887       C1147   1.485       .  S
C888        H891   1.083       .  S
C892        C893   1.407       .  A
C892        C897   1.408       .  A
C892       C1119   1.482       .  S
C893        C894   1.399       .  A
C893        H898   1.084       .  S
C894        C895   1.397       .  A
C894       C1114   1.437       .  S
C895        C896   1.397       .  A
C895        H899   1.085       .  S
C896        C897   1.401       .  A
C896       C1112   1.438       .  S
C897        H900   1.084       .  S
Zr901       O904   2.428   1_545  S
Zr901       O909   2.378   1_545  S
Zr901       O911   2.401   1_545  S
O902        H958   0.990       .  S
O902        H966   0.990   1_455  S
O903        C923   1.281       .  A
O904        C925   1.282       .  A
O905       Zr915   2.443   1_554  S
O905        C924   1.286       .  A
O906       Zr914   2.442   1_554  S
O906        C925   1.284       .  A
O907        C924   1.281       .  A
O908       Zr916   2.428   1_554  S
O908        C923   1.281       .  A
O909       Zr914   2.396   1_554  S
O910       Zr915   2.392   1_554  S
O910       Zr916   2.374   1_554  S
O910        H945   0.966       .  S
O911       Zr914   2.399   1_554  S
O912       Zr915   2.393   1_554  S
Zr913       O940   2.421       .  S
Zr913       O919   2.397       .  S
Zr913       O922   2.380       .  S
Zr913       O938   2.444       .  S
Zr914       O927   2.445       .  S
Zr914       O920   2.398       .  S
Zr914       O921   2.388       .  S
Zr914       O926   2.435       .  S
Zr915       O941   2.442       .  S
Zr915       O919   2.395       .  S
Zr915       O922   2.387       .  S
Zr915       O917   2.436       .  S
Zr915       O939   2.437       .  S
Zr916       O919   2.398       .  S
Zr916       O942   2.435       .  S
Zr916       O943   2.436       .  S
Zr916       O918   2.437       .  S
O917        H954   0.990       .  S
O918        H949   0.990   1_556  S
O920        H946   0.966       .  S
O922        H947   0.966       .  S
C923       C1109   1.433       .  S
C924       C1108   1.436       .  S
C925       C1106   1.437       .  S
O926        H962   0.990   1_556  S
O927        C929   1.286       .  A
O928        C929   1.281       .  A
C929       C1128   1.436       .  S
O930       Zr931   2.440   1_554  S
O930        H959   0.990       .  S
Zr931       O936   2.431       .  S
Zr931       O934   2.437       .  S
Zr931       O935   2.438       .  S
O932        C937   1.281       .  A
O933        H950   0.990   1_556  S
O933        H965   0.990   1_556  S
O934        H951   0.990       .  S
O935        H955   0.990       .  S
O936        C937   1.282       .  A
C937       C1113   1.432       .  S
O938        H957   0.990       .  S
O938        H961   0.990       .  S
O939        H953   0.990   1_556  S
O939        H960   0.990   1_556  S
O940        C944   1.281       .  A
O941        C944   1.285       .  A
O942        H952   0.990   1_556  S
O943        H956   0.990       .  S
C944       C1141   1.435       .  S
Zr967       O970   2.428       .  S
Zr967       O975   2.378       .  S
Zr967       O977   2.401       .  S
Zr967       O968   2.440       .  S
O968       H1024   0.990       .  S
O968       H1032   0.990       .  S
O969        C989   1.281       .  A
O970        C991   1.282       .  A
O971       Zr981   2.444       .  S
O971        C990   1.286       .  A
O972       Zr980   2.442       .  S
O972        C991   1.285       .  A
O973        C990   1.281       .  A
O974       Zr982   2.428       .  S
O974        C989   1.281       .  A
O975       Zr980   2.396       .  S
O976       Zr981   2.392       .  S
O977       Zr980   2.399       .  S
O977       Zr997   2.394       .  S
O977       H1014   0.966       .  S
O978       Zr981   2.394       .  S
Zr979      O1006   2.421   1_545  S
Zr979       O985   2.397   1_545  S
Zr979       O988   2.380   1_545  S
Zr980       O993   2.445       .  S
Zr980       O986   2.398       .  S
Zr980       O987   2.388       .  S
Zr980       O999   2.436       .  S
Zr980       O992   2.435       .  S
Zr981      O1007   2.441       .  S
Zr981       O985   2.395       .  S
Zr981       O988   2.386       .  S
Zr981       O983   2.435       .  S
Zr982      O1008   2.435       .  S
Zr982      O1009   2.436       .  S
Zr982       O984   2.436       .  S
O983       H1020   0.990       .  S
O984       H1015   0.990       .  S
O987       Zr997   2.376       .  S
O988       H1013   0.966       .  S
C989       C1111   1.433       .  S
C990       C1126   1.436       .  S
C991       C1140   1.438       .  S
O993        C995   1.286       .  A
O994        C995   1.281       .  A
C995       C1104   1.436       .  S
O996       Zr997   2.440       .  S
O996       H1025   0.990       .  S
Zr997      O1002   2.430       .  S
Zr997      O1000   2.437       .  S
Zr997      O1001   2.438       .  S
O998       C1003   1.281       .  A
O999       H1016   0.990       .  S
O999       H1031   0.990       .  S
O1000      H1017   0.990       .  S
O1001      H1021   0.990       .  S
O1002      C1003   1.282       .  A
C1003      C1101   1.431       .  S
O1004      H1023   0.990   1_455  S
O1004      H1027   0.990   1_455  S
O1005      H1019   0.990       .  S
O1005      H1026   0.990       .  S
O1006      C1010   1.281       .  A
O1007      C1010   1.285       .  A
O1008      H1018   0.990       .  S
O1009      H1022   0.990       .  S
C1010      C1100   1.435       .  S
C1033      C1034   1.407       .  A
C1033      C1038   1.408       .  A
C1033      C1090   1.481       .  S
C1034      C1035   1.399       .  A
C1034      H1039   1.084       .  S
C1035      C1036   1.397       .  A
C1035      C1102   1.436       .  S
C1036      C1037   1.397       .  A
C1036      H1040   1.085       .  S
C1037      C1038   1.401       .  A
C1037      C1110   1.438       .  S
C1038      H1041   1.084       .  S
C1042      C1043   1.406       .  A
C1042      C1047   1.406       .  A
C1043      C1044   1.400       .  A
C1043      H1048   1.084       .  S
C1044      C1045   1.402       .  A
C1044      C1107   1.442       .  S
C1045      C1046   1.402       .  A
C1045      H1049   1.085       .  S
C1046      C1047   1.400       .  A
C1046      C1103   1.442       .  S
C1047      H1050   1.084       .  S
C1051      C1052   1.405       .  A
C1051      C1056   1.405       .  A
C1051      C1093   1.485       .  S
C1052      C1053   1.405       .  A
C1052      H1057   1.083       .  S
C1053      C1054   1.404       .  A
C1053      C1070   1.483       .  S
C1054      C1055   1.403       .  A
C1054      H1058   1.083       .  S
C1055      C1056   1.404       .  A
C1055      C1083   1.483       .  S
C1056      H1059   1.083       .  S
C1060      C1061   1.408       .  A
C1060      C1065   1.407       .  A
C1060      C1073   1.483       .  S
C1061      H1066   1.084       .  S
C1062      C1063   1.400       .  A
C1062      C1105   1.442       .  S
C1063      C1064   1.400       .  A
C1063      H1067   1.085       .  S
C1064      C1099   1.441       .  S
C1065      H1068   1.084       .  S
C1069      C1070   1.405       .  A
C1069      C1074   1.398       .  A
C1069      H1075   1.083       .  S
C1070      C1071   1.405       .  A
C1071      C1072   1.397       .  A
C1071      H1076   1.083       .  S
C1072      C1073   1.404       .  A
C1073      C1074   1.406       .  A
C1074      H1078   1.083       .  S
C1079      C1080   1.405       .  A
C1079      C1084   1.397       .  A
C1079      H1085   1.083       .  S
C1081      H1086   1.083       .  S
C1082      C1083   1.406       .  A
C1082      H1087   1.083       .  S
C1083      C1084   1.405       .  A
C1084      H1088   1.083       .  S
C1089      C1090   1.404       .  A
C1089      C1094   1.398       .  A
C1089      H1095   1.083       .  S
C1090      C1091   1.404       .  A
C1091      C1092   1.397       .  A
C1091      H1096   1.083       .  S
C1092      C1093   1.406       .  A
C1092      H1097   1.083       .  S
C1093      C1094   1.406       .  A
C1094      H1098   1.083       .  S
C1099      C1100   1.206       .  T
C1101      C1102   1.203       .  T
C1103      C1104   1.207       .  T
C1105      C1106   1.207       .  T
C1107      C1108   1.207       .  T
C1109      C1110   1.205       .  T
C1111      C1112   1.205       .  T
C1113      C1114   1.204       .  T
C1115      C1116   1.406       .  A
C1115      C1120   1.397       .  A
C1115      H1121   1.083       .  S
C1116      C1117   1.406       .  A
C1117      C1118   1.398       .  A
C1117      H1122   1.083       .  S
C1118      C1119   1.404       .  A
C1118      H1123   1.083       .  S
C1119      C1120   1.404       .  A
C1120      H1124   1.083       .  S
C1125      C1126   1.207       .  T
C1127      C1128   1.207       .  T
C1129      C1130   1.404       .  A
C1129      C1134   1.397       .  A
C1129      H1135   1.083       .  S
C1130      C1131   1.404       .  A
C1131      C1132   1.397       .  A
C1131      H1136   1.083       .  S
C1132      C1133   1.405       .  A
C1132      H1137   1.083       .  S
C1133      C1134   1.405       .  A
C1134      H1138   1.083       .  S
C1139      C1140   1.208       .  T
C1141      C1142   1.206       .  T
C1143      C1144   1.404       .  A
C1143      C1148   1.397       .  A
C1143      H1149   1.083       .  S
C1144      C1145   1.406       .  A
C1145      C1146   1.398       .  A
C1145      H1150   1.083       .  S
C1146      C1147   1.406       .  A
C1146      H1151   1.083       .  S
C1147      C1148   1.406       .  A
C1148      H1152   1.083       .  S
