geometry optimzed in LAMMPS
_audit_creation_date              2020-12-01 
_audit_creation_method            'lammps2cif' 
_symmetry_space_group_name_H-M    'P1' 
_symmetry_Int_Tables_number       1 
_symmetry_cell_setting            triclinic 
loop_ 
_symmetry_equiv_pos_as_xyz 
  x,y,z 
_cell_length_a                    38.09353036 
_cell_length_b                    39.94212518376068 
_cell_length_c                    31.708883757275004 
_cell_angle_alpha                 91.11510716555607 
_cell_angle_beta                  89.24773787870006 
_cell_angle_gamma                 120.55754044345326 
loop_ 
_atom_site_label 
_atom_site_type_symbol 
_atom_site_fract_x 
_atom_site_fract_y 
_atom_site_fract_z 
_atom_site_charge 
O1          O  0.39878817  0.15945024  0.28450775    -0.81700
C2          C  0.25852458  0.11671234  0.19242109     0.97700
O3          O  0.27860288  0.10148060  0.20451447    -0.70800
O4          O  0.34899726  0.10573775  0.22175898    -0.74400
Al5        Al  0.31016261  0.11368071  0.25460401     1.49000
C6          C  0.37929500  0.12761925  0.19842524     0.93000
O7          O  0.39733487  0.23230943  0.20957551    -0.80600
O8          O  0.34625757  0.23476474  0.27094339    -0.74100
Al9        Al  0.39084738  0.19194877  0.24688907     1.90100
O10         O  0.33576861  0.21136845  0.18728870    -0.73200
O11         O  0.27922545  0.17193658  0.28905525    -0.73100
O12         O  0.26636706  0.14947131  0.20660818    -0.78700
O13         O  0.26659529  0.11194348  0.28844156    -0.76900
O14         O  0.33642405  0.16480330  0.24665700    -1.13100
O15         O  0.33741756  0.11827719  0.30637939    -0.72300
C16         C  0.37545002  0.13384565  0.31018497     0.98500
C17         C  0.37327030  0.23591229  0.18567870     0.94900
Al18       Al  0.30927247  0.18964746  0.23897367     1.55600
O19         O  0.39433007  0.16411909  0.19940024    -0.76900
C20         C  0.25894860  0.13768767  0.30184350     0.99000
C21         C  0.37427875  0.24119751  0.29657415     0.93900
O22         O  0.39173238  0.22148732  0.29481565    -0.82200
C23         C  0.49184790  0.48909368  0.02027600    -0.02300
C24         C  0.99228938  0.49492179  0.46536056    -0.02300
C25         C  0.39836219  0.11077076  0.17052851    -0.11800
C26         C  0.40007212  0.07745237  0.18157306     0.03700
C27         C  0.41888276  0.06309659  0.15434584    -0.12400
C28         C  0.43694895  0.08161583  0.11631801     0.18500
C29         C  0.43617576  0.11529376  0.10579059    -0.09400
C30         C  0.41719275  0.12961423  0.13275647    -0.02400
H31         H  0.41948116  0.03725884  0.16291574     0.05000
C32         C  0.45326775  0.06322345  0.08695602     0.20500
H33         H  0.41673776  0.15543519  0.12383053     0.10200
C34         C  0.42580385  0.03068472  0.06366057    -0.15800
C35         C  0.43807424  0.00830596  0.04008405     0.03200
C36         C  0.48021135  0.01763100  0.03978732    -0.11100
C37         C  0.50781700  0.05409957  0.05974254    -0.01100
C38         C  0.49478318  0.07566716  0.08382696    -0.06200
H39         H  0.39373241  0.02164269  0.06529939     0.06200
H40         H  0.54027631  0.06591759  0.05873492     0.09600
Br41       Br  0.45966407  0.14220439  0.05449014    -0.06000
Br42       Br  0.37994141  0.05163599  0.23445400    -0.02900
Br43       Br  0.39179472  0.96361216  0.01541459     0.00000
Br44       Br  0.53484643  0.12092644  0.11397144    -0.04400
C45         C  0.22327457  0.09504023  0.16390252    -0.11800
C46         C  0.21270948  0.11423567  0.13409940     0.03700
C47         C  0.17564633  0.09380869  0.11258298    -0.12400
C48         C  0.14861777  0.05428781  0.12010967     0.18500
C49         C  0.15997955  0.03455865  0.14809855    -0.09400
C50         C  0.19700843  0.05496608  0.16983105    -0.02400
H51         H  0.16778149  0.10884381  0.08987208     0.05000
C52         C  0.11010213  0.03383845  0.09604851     0.20500
H53         H  0.20464931  0.03970390  0.19245230     0.10200
C54         C  0.11169560  0.02529725  0.05378847    -0.15700
C55         C  0.07670934  0.00757951  0.02853756     0.03200
C56         C  0.03820920  0.00168407  0.04397522    -0.11100
C57         C  0.03727056  0.00554716  0.08904463    -0.01100
C58         C  0.07221495  0.02254960  0.11422542    -0.06200
H59         H  0.14090927  0.03185033  0.04058294     0.06200
H60         H  0.00934746  0.99869432  0.10514257     0.09600
Br61       Br  0.12604997  0.97976435  0.15707470    -0.06000
Br62       Br  0.24833685  0.16780352  0.12008174    -0.02900
Br63       Br  0.08926181  0.99146161  0.97705076     0.00000
Br64       Br  0.06695189  0.03245306  0.17273618    -0.04400
C65         C  0.38804651  0.27067851  0.15871531    -0.11800
C66         C  0.42416705  0.30636401  0.16805422     0.03700
C67         C  0.43450706  0.33933811  0.14438712    -0.12400
C68         C  0.40940344  0.33811620  0.11183244     0.18500
C69         C  0.37343486  0.30299006  0.10252812    -0.09400
C70         C  0.36304710  0.26972042  0.12579982    -0.02400
H71         H  0.46241725  0.36633182  0.15149394     0.05000
C72         C  0.42391811  0.37303616  0.08564096     0.20500
H73         H  0.33496008  0.24307551  0.11838917     0.10200
C74         C  0.44954764  0.37780684  0.05218124    -0.15700
C75         C  0.47167489  0.41321922  0.03120497     0.03200
C76         C  0.46536322  0.44567257  0.03975597    -0.11100
C77         C  0.43905180  0.43900971  0.07552973    -0.01100
C78         C  0.41892741  0.40405554  0.09765797    -0.06200
H79         H  0.45460115  0.35398312  0.04443225     0.06200
H80         H  0.43594507  0.46173829  0.09036030     0.09600
Br81       Br  0.33729860  0.29939353  0.05895890    -0.06000
Br82       Br  0.45986297  0.31373882  0.21411270    -0.02900
Br83       Br  0.01009453  0.40980373  0.99522067     0.00000
Br84       Br  0.38738162  0.40105729  0.14664288    -0.04400
C85         C  0.39327539  0.12010922  0.34223477    -0.11800
C86         C  0.37305504  0.10223497  0.38017149     0.03700
C87         C  0.38902233  0.08512076  0.40614296    -0.12400
C88         C  0.42531154  0.08596061  0.39536849     0.18500
C89         C  0.44654283  0.10549051  0.35872603    -0.09400
C90         C  0.43068732  0.12251343  0.33282229    -0.02400
H91         H  0.37255438  0.07025977  0.43435890     0.05000
C92         C  0.43781293  0.06204966  0.41902896     0.20500
H93         H  0.44680907  0.13599250  0.30394147     0.10200
C94         C  0.41795553  0.02239692  0.41058977    -0.15700
C95         C  0.43303039  0.99877431  0.42426317     0.03200
C96         C  0.46889213  0.01447121  0.45119270    -0.11100
C97         C  0.48565008  0.05498626  0.46160350    -0.01100
C98         C  0.47166671  0.07830639  0.44526517    -0.06200
H99         H  0.39179672  0.01036314  0.38975922     0.06200
H100        H  0.01260851  0.07035569  0.48053100     0.09600
Br101      Br  0.49563105  0.10692221  0.34077880    -0.06000
Br102      Br  0.32418505  0.10088084  0.39869146    -0.02900
Br103      Br  0.39983475  0.44808361  0.39489670     0.00000
Br104      Br  0.50215975  0.13315266  0.45690236    -0.04400
C105        C  0.22500363  0.12754387  0.33178677    -0.11800
C106        C  0.19789275  0.14166298  0.32728097     0.03700
C107        C  0.16369326  0.12812895  0.35367267    -0.12400
C108        C  0.15617718  0.10132666  0.38550400     0.18500
C109        C  0.18501945  0.08953925  0.39171239    -0.09400
C110        C  0.21850448  0.10213525  0.36458827    -0.02400
H111        H  0.14192086  0.13742260  0.34826647     0.05000
C112        C  0.11527140  0.08119780  0.40616176     0.20500
H113        H  0.23941464  0.09163167  0.36886511     0.10200
C114        C  0.08086282  0.06000753  0.38099116    -0.15700
C115        C  0.04240239  0.03518456  0.39872356     0.03200
C116        C  0.03813582  0.02758527  0.44341989    -0.11100
C117        C  0.07073799  0.05741385  0.46733105    -0.01100
C118        C  0.10916866  0.08281193  0.44961128    -0.06200
H119        H  0.08415593  0.06154196  0.34695901     0.06200
H120        H  0.06708586  0.06165088  0.50003106     0.09600
Br121      Br  0.18022350  0.05484043  0.43489953    -0.06000
Br122      Br  0.20340905  0.17656158  0.28341292    -0.02900
Br123      Br  0.99999206  0.01142338  0.35690716     0.00000
Br124      Br  0.15149926  0.12064346  0.48538869    -0.04400
C125        C  0.38802983  0.27400639  0.32657289    -0.11800
C126        C  0.40317441  0.27434633  0.36709202     0.03700
C127        C  0.41792989  0.30774054  0.39278708    -0.12400
C128        C  0.41755973  0.34061384  0.37858632     0.18500
C129        C  0.40108514  0.33955385  0.33885630    -0.09400
C130        C  0.38633362  0.30645398  0.31343970    -0.02400
H131        H  0.43051008  0.30841741  0.42345194     0.05000
C132        C  0.43830459  0.37731966  0.40298749     0.20500
H133        H  0.37470699  0.30666051  0.28248722     0.10200
C134        C  0.47674923  0.40584080  0.39010089    -0.15700
C135        C  0.49722390  0.44302962  0.40894065     0.03200
C136        C  0.47731318  0.45387751  0.44181495    -0.11100
C137        C  0.43860986  0.42266399  0.45426593    -0.01100
C138        C  0.41962053  0.38533420  0.43627073    -0.06200
H139        H  0.49098584  0.39848716  0.36454831     0.06200
H140        H  0.42119778  0.42724605  0.47715456     0.09600
Br141      Br  0.39946181  0.38306153  0.31679970    -0.06000
Br142      Br  0.40316805  0.22996256  0.38937297    -0.02900
Br143      Br  0.55122814  0.46951964  0.38422953     0.00000
Br144      Br  0.36620841  0.34742043  0.45546133    -0.04400
O145        O  0.39879288  0.15945689  0.78452389    -0.81700
C146        C  0.25853364  0.11672821  0.69243090     0.97700
O147        O  0.27860849  0.10149440  0.70452827    -0.70800
O148        O  0.34900160  0.10575138  0.72177029    -0.74400
Al149      Al  0.31016800  0.11369235  0.75461774     1.49000
C150        C  0.37930095  0.12763498  0.69843949     0.93000
O151        O  0.39734577  0.23232473  0.70959998    -0.80600
O152        O  0.34626765  0.23477658  0.77096108    -0.74100
Al153      Al  0.39085448  0.19195967  0.74690946     1.90100
O154        O  0.33578182  0.21138199  0.68730576    -0.73200
O155        O  0.27923464  0.17195037  0.78906806    -0.73100
O156        O  0.26637643  0.14948727  0.70661838    -0.78700
O157        O  0.26660343  0.11195681  0.78845794    -0.76900
O158        O  0.33643126  0.16481508  0.74667336    -1.13100
O159        O  0.33742171  0.11828388  0.80639265    -0.72300
C160        C  0.37545373  0.13384953  0.81019799     0.98500
C161        C  0.37328321  0.23592734  0.68569980     0.94900
Al162      Al  0.30928224  0.18966108  0.73898838     1.55600
O163        O  0.39433817  0.16413488  0.69941894    -0.76900
C164        C  0.25896024  0.13770305  0.80186080     0.99000
C165        C  0.37428623  0.24120594  0.79659408     0.93900
O166        O  0.39173646  0.22149276  0.79483840    -0.82200
C167        C  0.49183999  0.48909123  0.52026773    -0.02300
C168        C  0.99230750  0.49493206  0.96537401    -0.02300
C169        C  0.39836867  0.11078922  0.67054184    -0.11800
C170        C  0.40007007  0.07746524  0.68158003     0.03700
C171        C  0.41888305  0.06311294  0.65435292    -0.12400
C172        C  0.43695884  0.08164052  0.61633177     0.18500
C173        C  0.43619327  0.11532311  0.60580970    -0.09400
C174        C  0.41720880  0.12964106  0.63277625    -0.02400
H175        H  0.41947463  0.03727043  0.66291688     0.05000
C176        C  0.45327372  0.06324778  0.58696809     0.20500
H177        H  0.41675926  0.15546590  0.62385537     0.10200
C178        C  0.42580442  0.03069959  0.56368921    -0.15800
C179        C  0.43807092  0.00831617  0.54011806     0.03200
C180        C  0.48020994  0.01764800  0.53980903    -0.11100
C181        C  0.50781966  0.05412529  0.55974459    -0.01100
C182        C  0.49478968  0.07569707  0.58382581    -0.06200
H183        H  0.39373222  0.02165334  0.56533918     0.06200
H184        H  0.54027933  0.06594696  0.55872332     0.09600
Br185      Br  0.45968934  0.14223999  0.55451338    -0.06000
Br186      Br  0.37992241  0.05163391  0.73445097    -0.02900
Br187      Br  0.39178595  0.96360792  0.51547672     0.00000
Br188      Br  0.53485899  0.12096746  0.61395050    -0.04400
C189        C  0.22328779  0.09505785  0.66390589    -0.11800
C190        C  0.21273555  0.11425283  0.63408934     0.03700
C191        C  0.17567614  0.09382812  0.61256463    -0.12400
C192        C  0.14863849  0.05430994  0.62009725     0.18500
C193        C  0.15998897  0.03458069  0.64809885    -0.09400
C194        C  0.19701407  0.05498563  0.66983848    -0.02400
H195        H  0.16782014  0.10886355  0.58984533     0.05000
C196        C  0.11011867  0.03386391  0.59604090     0.20500
H197        H  0.20464549  0.03972345  0.69246919     0.10200
C198        C  0.11169984  0.02530498  0.55378378    -0.15700
C199        C  0.07670662  0.00758276  0.52854181     0.03200
C200        C  0.03821275  0.00169951  0.54398368    -0.11100
C201        C  0.03728625  0.00558041  0.58905176    -0.01100
C202        C  0.07223690  0.02258909  0.61422350    -0.06200
H203        H  0.14090822  0.03184651  0.54057389     0.06200
H204        H  0.00936854  0.99873699  0.60515503     0.09600
Br205      Br  0.12604714  0.97978946  0.65708574    -0.06000
Br206      Br  0.24837613  0.16781671  0.62006645    -0.02900
Br207      Br  0.08923785  0.99144301  0.47705838     0.00000
Br208      Br  0.06698992  0.03251944  0.67272992    -0.04400
C209        C  0.38805991  0.27069398  0.65873670    -0.11800
C210        C  0.42419465  0.30637278  0.66805869     0.03700
C211        C  0.43453532  0.33934721  0.64439176    -0.12400
C212        C  0.40941866  0.33813218  0.61185505     0.18500
C213        C  0.37343598  0.30301383  0.60256872    -0.09400
C214        C  0.36304793  0.26974374  0.62583882    -0.02400
H215        H  0.46245638  0.36633552  0.65148420     0.05000
C216        C  0.42393167  0.37304850  0.58565928     0.20500
H217        H  0.33495054  0.24310489  0.61844083     0.10200
C218        C  0.44955679  0.37781414  0.55219716    -0.15700
C219        C  0.47167310  0.41322001  0.53120714     0.03200
C220        C  0.46535891  0.44567261  0.53975301    -0.11100
C221        C  0.43905020  0.43901386  0.57552855    -0.01100
C222        C  0.41893372  0.40406528  0.59766652    -0.06200
H223        H  0.45461215  0.35399061  0.54445360     0.06200
H224        H  0.43594005  0.46174240  0.59035377     0.09600
Br225      Br  0.33728317  0.29942899  0.55902396    -0.06000
Br226      Br  0.45991351  0.31373866  0.71409104    -0.02900
Br227      Br  0.01007415  0.40979553  0.49519960     0.00000
Br228      Br  0.38738996  0.40107250  0.64665123    -0.04400
C229        C  0.39327723  0.12010577  0.84224196    -0.11800
C230        C  0.37305431  0.10222108  0.88017412     0.03700
C231        C  0.38901969  0.08509911  0.90613695    -0.12400
C232        C  0.42530983  0.08594230  0.89535847     0.18500
C233        C  0.44654387  0.10548306  0.85872198    -0.09400
C234        C  0.43068994  0.12251273  0.83282654    -0.02400
H235        H  0.37255046  0.07023093  0.93434940     0.05000
C236        C  0.43781505  0.06203017  0.91901060     0.20500
H237        H  0.44681410  0.13600006  0.80394954     0.10200
C238        C  0.41797587  0.02238156  0.91054815    -0.15700
C239        C  0.43306426  0.99876579  0.92420780     0.03200
C240        C  0.46891284  0.01446165  0.95115763    -0.11100
C241        C  0.48565568  0.05497121  0.96158402    -0.01100
C242        C  0.47166442  0.07828732  0.94525303    -0.06200
H243        H  0.39182529  0.01034899  0.88970644     0.06200
H244        H  0.01260519  0.07034499  0.98053120     0.09600
Br245      Br  0.49563592  0.10692323  0.84077291    -0.06000
Br246      Br  0.32418440  0.10086413  0.89869994    -0.02900
Br247      Br  0.39985069  0.44809027  0.89489343     0.00000
Br248      Br  0.50214519  0.13313150  0.95690433    -0.04400
C249        C  0.22502233  0.12756427  0.83181107    -0.11800
C250        C  0.19791356  0.14168631  0.82731093     0.03700
C251        C  0.16371672  0.12815285  0.85370550    -0.12400
C252        C  0.15620353  0.10135113  0.88553629     0.18500
C253        C  0.18504942  0.08956856  0.89174611    -0.09400
C254        C  0.21852971  0.10216066  0.86461604    -0.02400
H255        H  0.14194276  0.13744485  0.84830066     0.05000
C256        C  0.11529377  0.08121202  0.90618352     0.20500
H257        H  0.23944151  0.09165885  0.86889151     0.10200
C258        C  0.08089415  0.06001675  0.88100252    -0.15700
C259        C  0.04242988  0.03518941  0.89872323     0.03200
C260        C  0.03815112  0.02758766  0.94341851    -0.11100
C261        C  0.07074322  0.05741842  0.96733875    -0.01100
C262        C  0.10917742  0.08282342  0.94963028    -0.06200
H263        H  0.08419735  0.06155329  0.84697126     0.06200
H264        H  0.06708084  0.06164977  0.00003782     0.09600
Br265      Br  0.18026745  0.05488616  0.93494664    -0.06000
Br266      Br  0.20342887  0.17658898  0.78344801    -0.02900
Br267      Br  0.00003300  0.01143043  0.85689356     0.00000
Br268      Br  0.15149332  0.12065889  0.98541804    -0.04400
C269        C  0.38804133  0.27401602  0.82658998    -0.11800
C270        C  0.40317052  0.27434925  0.86711529     0.03700
C271        C  0.41793142  0.30774485  0.89280851    -0.12400
C272        C  0.41758293  0.34062607  0.87859826     0.18500
C273        C  0.40112547  0.33957383  0.83886047    -0.09400
C274        C  0.38636757  0.30647227  0.81344638    -0.02400
H275        H  0.43049839  0.30841618  0.92347947     0.05000
C276        C  0.43832734  0.37732977  0.90300162     0.20500
H277        H  0.37475388  0.30668360  0.78248816     0.10200
C278        C  0.47677339  0.40585043  0.89011814    -0.15700
C279        C  0.49724239  0.44304249  0.90895036     0.03200
C280        C  0.47732807  0.45388911  0.94182190    -0.11100
C281        C  0.43862334  0.42267634  0.95426923    -0.01100
C282        C  0.41963650  0.38534648  0.93627594    -0.06200
H283        H  0.49101267  0.39849554  0.86456939     0.06200
H284        H  0.42120728  0.42726059  0.97715140     0.09600
Br285      Br  0.39953385  0.38309369  0.81679090    -0.06000
Br286      Br  0.40313525  0.22995456  0.88940573    -0.02900
Br287      Br  0.55124012  0.46954087  0.88422362     0.00000
Br288      Br  0.36621589  0.34743813  0.95545074    -0.04400
O289        O  0.39326449  0.65765239  0.28420326    -0.81700
C290        C  0.25213130  0.61739295  0.19572627     0.97700
O291        O  0.27178017  0.60169656  0.20767076    -0.70800
O292        O  0.34111995  0.60377071  0.22326306    -0.74400
Al293      Al  0.30397739  0.61352059  0.25696506     1.49000
C294        C  0.37061923  0.62462419  0.19860268     0.93000
O295        O  0.39178394  0.73078774  0.20885679    -0.80600
O296        O  0.34311102  0.73519801  0.27296623    -0.74100
Al297      Al  0.38536781  0.69043644  0.24643404     1.90100
O298        O  0.32990030  0.71208309  0.18929682    -0.73200
O299        O  0.27587708  0.67341523  0.29289228    -0.73100
O300        O  0.26039763  0.65022929  0.21024801    -0.78700
O301        O  0.26172324  0.61305311  0.29207787    -0.76900
O302        O  0.33101606  0.66456659  0.24818867    -1.13100
O303        O  0.33216878  0.61818598  0.30792519    -0.72300
C304        C  0.37013634  0.63276352  0.31073811     0.98500
C305        C  0.36762984  0.73560601  0.18634411     0.94900
Al306      Al  0.30457778  0.69034565  0.24177599     1.55600
O307        O  0.38633028  0.66122294  0.19873150    -0.76900
C308        C  0.25548867  0.63944011  0.30638352     0.99000
C309        C  0.37209630  0.74144787  0.29710505     0.93900
O310        O  0.38886906  0.72118467  0.29416920    -0.82200
C311        C  0.49641664  0.99028417  0.01955706    -0.02300
C312        C  0.99624596  0.99561860  0.46457807    -0.02300
C313        C  0.38804965  0.60642320  0.17028204    -0.11800
C314        C  0.39199164  0.57466824  0.18289373     0.03700
C315        C  0.41056315  0.55985272  0.15583623    -0.12400
C316        C  0.42562619  0.57602893  0.11607697     0.18500
C317        C  0.42131130  0.60732682  0.10336163    -0.09400
C318        C  0.40316884  0.62247916  0.13043337    -0.02400
H319        H  0.41343885  0.53560259  0.16595662     0.05000
C320        C  0.44343101  0.55819003  0.08767654     0.20500
H321        H  0.40048967  0.64676660  0.12005149     0.10200
C322        C  0.41737971  0.52577788  0.06340464    -0.15800
C323        C  0.43132452  0.50451790  0.04011617     0.03200
C324        C  0.47390843  0.51511831  0.04065972    -0.11100
C325        C  0.50001702  0.55130038  0.06193914    -0.01100
C326        C  0.48523699  0.57152069  0.08600968    -0.06200
H327        H  0.38508577  0.51592672  0.06401387     0.06200
H328        H  0.53261731  0.56401734  0.06183523     0.09600
Br329      Br  0.43886710  0.62982069  0.04895759    -0.06000
Br330      Br  0.37523140  0.55182394  0.23761822    -0.02900
Br331      Br  0.38637385  0.45935061  0.01460853     0.00000
Br332      Br  0.52332184  0.61649550  0.11792708    -0.04400
C333        C  0.21725582  0.59609406  0.16655237    -0.11800
C334        C  0.20445185  0.61563992  0.13963489     0.03700
C335        C  0.16802189  0.59455794  0.11717386    -0.12400
C336        C  0.14417222  0.55407851  0.12045522     0.18500
C337        C  0.15812998  0.53422406  0.14487059    -0.09400
C338        C  0.19425559  0.55522870  0.16792068    -0.02400
H339        H  0.15818938  0.60981235  0.09699877     0.05000
C340        C  0.10575936  0.53313504  0.09646707     0.20500
H341        H  0.20376367  0.53957105  0.18785403     0.10200
C342        C  0.10726444  0.52432658  0.05432691    -0.15700
C343        C  0.07220133  0.50662797  0.02919881     0.03200
C344        C  0.03379618  0.50108564  0.04471520    -0.11100
C345        C  0.03296551  0.50495134  0.08976373    -0.01100
C346        C  0.06796778  0.52177093  0.11481501    -0.06200
H347        H  0.13646947  0.53090609  0.04107481     0.06200
H348        H  0.00507442  0.49793338  0.10602476     0.09600
Br349      Br  0.12877898  0.47853459  0.14728226    -0.06000
Br350      Br  0.23615387  0.67064529  0.13032332    -0.02900
Br351      Br  0.08494615  0.49129164  0.97723799     0.00000
Br352      Br  0.06299263  0.53065298  0.17367019    -0.04400
C353        C  0.38309115  0.77063020  0.15928004    -0.11800
C354        C  0.41940980  0.80600535  0.16908847     0.03700
C355        C  0.43142594  0.83904181  0.14475679    -0.12400
C356        C  0.40783827  0.83839616  0.11091227     0.18500
C357        C  0.37134754  0.80366851  0.10139478    -0.09400
C358        C  0.35921985  0.77028052  0.12547341    -0.02400
H359        H  0.45948761  0.86569122  0.15243068     0.05000
C360        C  0.42406964  0.87371006  0.08453196     0.20500
H361        H  0.33086277  0.74397333  0.11780581     0.10200
C362        C  0.45058789  0.87827815  0.05190600    -0.15700
C363        C  0.47405269  0.91385949  0.03127956     0.03200
C364        C  0.46880106  0.94696811  0.03940387    -0.11100
C365        C  0.44219530  0.94079362  0.07475846    -0.01100
C366        C  0.42014660  0.90548476  0.09616435    -0.06200
H367        H  0.45519264  0.85413477  0.04450952     0.06200
H368        H  0.44004448  0.96402222  0.08966051     0.09600
Br369      Br  0.33691390  0.80080681  0.05634167    -0.06000
Br370      Br  0.45300663  0.81290982  0.21696482    -0.02900
Br371      Br  0.01321394  0.91043004  0.99663643     0.00000
Br372      Br  0.38711437  0.90290417  0.14361236    -0.04400
C373        C  0.38788202  0.61870385  0.34279074    -0.11800
C374        C  0.36590443  0.59696904  0.37847487     0.03700
C375        C  0.38225896  0.57989558  0.40392397    -0.12400
C376        C  0.42050345  0.58423413  0.39502907     0.18500
C377        C  0.44323333  0.60724919  0.36070994    -0.09400
C378        C  0.42711071  0.62446942  0.33536515    -0.02400
H379        H  0.36453726  0.56221519  0.43023858     0.05000
C380        C  0.43370649  0.56049411  0.41810691     0.20500
H381        H  0.44467132  0.64080328  0.30828747     0.10200
C382        C  0.41454114  0.52091230  0.40916870    -0.15700
C383        C  0.42953538  0.49745254  0.42363609     0.03200
C384        C  0.46462199  0.51325796  0.45163594    -0.11100
C385        C  0.48040230  0.55347353  0.46270918    -0.01100
C386        C  0.46657820  0.57668627  0.44571933    -0.06200
H387        H  0.38895990  0.50878281  0.38757142     0.06200
H388        H  0.00659026  0.56878294  0.48270164     0.09600
Br389      Br  0.49486180  0.61316038  0.34468333    -0.06000
Br390      Br  0.31359580  0.58925941  0.39470827    -0.02900
Br391      Br  0.40199744  0.94936689  0.39593291     0.00000
Br392      Br  0.49585000  0.63127534  0.45898723    -0.04400
C393        C  0.22305197  0.63024179  0.33824621    -0.11800
C394        C  0.19795371  0.64693374  0.33739190     0.03700
C395        C  0.16373195  0.63277579  0.36387129    -0.12400
C396        C  0.15467894  0.60331153  0.39278306     0.18500
C397        C  0.18246933  0.58998038  0.39678194    -0.09400
C398        C  0.21552675  0.60271340  0.36901214    -0.02400
H399        H  0.14304226  0.64368296  0.36065717     0.05000
C400        C  0.11311164  0.58222839  0.41184780     0.20500
H401        H  0.23521142  0.59059461  0.37111151     0.10200
C402        C  0.07965084  0.56168628  0.38523319    -0.15700
C403        C  0.04046891  0.53655575  0.40135164     0.03200
C404        C  0.03460171  0.52785312  0.44570684    -0.11100
C405        C  0.06611931  0.55751457  0.47092244    -0.01100
C406        C  0.10534539  0.58297568  0.45499010    -0.06200
H407        H  0.08422171  0.56420793  0.35136777     0.06200
H408        H  0.06115392  0.56136197  0.50338134     0.09600
Br409      Br  0.17705964  0.55359583  0.43814855    -0.06000
Br410      Br  0.20614837  0.68667596  0.29865591    -0.02900
Br411      Br  0.99923129  0.51454988  0.35821520     0.00000
Br412      Br  0.14656270  0.61923934  0.49283725    -0.04400
C413        C  0.38761558  0.77457892  0.32686467    -0.11800
C414        C  0.40517284  0.77536927  0.36611374     0.03700
C415        C  0.42074178  0.80876101  0.39184207    -0.12400
C416        C  0.41923894  0.84133687  0.37878305     0.18500
C417        C  0.40134843  0.84024849  0.33994249    -0.09400
C418        C  0.38529680  0.80695619  0.31471201    -0.02400
H419        H  0.43489219  0.80970239  0.42160605     0.05000
C420        C  0.44047516  0.87784873  0.40326531     0.20500
H421        H  0.37227796  0.80700731  0.28453855     0.10200
C422        C  0.47951304  0.90544871  0.39106476    -0.15700
C423        C  0.50040157  0.94270016  0.40954475     0.03200
C424        C  0.48056735  0.95431551  0.44172837    -0.11100
C425        C  0.44149018  0.92382781  0.45405491    -0.01100
C426        C  0.42169695  0.88661800  0.43584977    -0.06200
H427        H  0.49371711  0.89745035  0.36603920     0.06200
H428        H  0.42412252  0.92922628  0.47676103     0.09600
Br429      Br  0.40008504  0.88411679  0.31846164    -0.06000
Br430      Br  0.40794036  0.73184739  0.38666026    -0.02900
Br431      Br  0.55445137  0.96848425  0.38485965     0.00000
Br432      Br  0.36703930  0.85022040  0.45317907    -0.04400
O433        O  0.39325450  0.65763025  0.78419295    -0.81700
C434        C  0.25211315  0.61738953  0.69573792     0.97700
O435        O  0.27175680  0.60168764  0.70768183    -0.70800
O436        O  0.34109732  0.60375631  0.72325549    -0.74400
Al437      Al  0.30396263  0.61350879  0.75696977     1.49000
C438        C  0.37059551  0.62460907  0.69859311     0.93000
O439        O  0.39177391  0.73077883  0.70886744    -0.80600
O440        O  0.34311104  0.73518788  0.77297938    -0.74100
Al441      Al  0.38535636  0.69041991  0.74643441     1.90100
O442        O  0.32989205  0.71208051  0.68931112    -0.73200
O443        O  0.27587645  0.67340989  0.79290636    -0.73100
O444        O  0.26038616  0.65022767  0.71026056    -0.78700
O445        O  0.26171726  0.61304628  0.79209506    -0.76900
O446        O  0.33100492  0.66455484  0.74819423    -1.13100
O447        O  0.33216125  0.61816997  0.80792377    -0.72300
C448        C  0.37012875  0.63274475  0.81073143     0.98500
C449        C  0.36762140  0.73560661  0.68636324     0.94900
Al450      Al  0.30457154  0.69033956  0.74178913     1.55600
O451        O  0.38631021  0.66120857  0.69872473    -0.76900
C452        C  0.25548954  0.63943704  0.80640292     0.99000
C453        C  0.37209834  0.74143334  0.79711232     0.93900
O454        O  0.38886414  0.72116376  0.79417720    -0.82200
C455        C  0.49641185  0.99029850  0.51958359    -0.02300
C456        C  0.99625810  0.99561579  0.96456539    -0.02300
C457        C  0.38802219  0.60640635  0.67026885    -0.11800
C458        C  0.39195746  0.57464631  0.68287601     0.03700
C459        C  0.41053058  0.55983238  0.65581846    -0.12400
C460        C  0.42560074  0.57601405  0.61606283     0.18500
C461        C  0.42128879  0.60731422  0.60334986    -0.09400
C462        C  0.40314623  0.62246617  0.63042245    -0.02400
H463        H  0.41340222  0.53557925  0.66593616     0.05000
C464        C  0.44340994  0.55817863  0.58766296     0.20500
H465        H  0.40047095  0.64675642  0.62004303     0.10200
C466        C  0.41736199  0.52576694  0.56338883    -0.15800
C467        C  0.43131075  0.50450983  0.54010115     0.03200
C468        C  0.47389593  0.51511419  0.54064613    -0.11100
C469        C  0.50000139  0.55129820  0.56192324    -0.01100
C470        C  0.48521700  0.57151323  0.58599702    -0.06200
H471        H  0.38506742  0.51591314  0.56399674     0.06200
H472        H  0.53260250  0.56401953  0.56181512     0.09600
Br473      Br  0.43884714  0.62981007  0.54894677    -0.06000
Br474      Br  0.37518507  0.55179141  0.73759452    -0.02900
Br475      Br  0.38636269  0.45933982  0.51459502     0.00000
Br476      Br  0.52329687  0.61648394  0.61792288    -0.04400
C477        C  0.21723759  0.59609567  0.66656138    -0.11800
C478        C  0.20443826  0.61564597  0.63964450     0.03700
C479        C  0.16801062  0.59456805  0.61717784    -0.12400
C480        C  0.14415895  0.55408805  0.62045198     0.18500
C481        C  0.15811287  0.53422948  0.64486599    -0.09400
C482        C  0.19423541  0.55522996  0.66792228    -0.02400
H483        H  0.15818193  0.60982606  0.59700345     0.05000
C484        C  0.10574729  0.53314769  0.59645989     0.20500
H485        H  0.20374016  0.53956843  0.68785367     0.10200
C486        C  0.10725315  0.52433512  0.55432099    -0.15700
C487        C  0.07218967  0.50663088  0.52919276     0.03200
C488        C  0.03378357  0.50108871  0.54470532    -0.11100
C489        C  0.03295262  0.50495936  0.58975341    -0.01100
C490        C  0.06795462  0.52178320  0.61480555    -0.06200
H491        H  0.13645839  0.53091327  0.54107075     0.06200
H492        H  0.00506088  0.49794075  0.60601340     0.09600
Br493      Br  0.12876107  0.47853942  0.64726636    -0.06000
Br494      Br  0.23614504  0.67065195  0.63033919    -0.02900
Br495      Br  0.08493312  0.49128331  0.47723896     0.00000
Br496      Br  0.06297678  0.53066766  0.67365944    -0.04400
C497        C  0.38308304  0.77064411  0.65931735    -0.11800
C498        C  0.41944396  0.80599481  0.66908908     0.03700
C499        C  0.43146499  0.83904093  0.64477236    -0.12400
C500        C  0.40783965  0.83843284  0.61098549     0.18500
C501        C  0.37130217  0.80373583  0.60151466    -0.09400
C502        C  0.35917282  0.77033555  0.62557172    -0.02400
H503        H  0.45956091  0.86566880  0.65241282     0.05000
C504        C  0.42407770  0.87374734  0.58460577     0.20500
H505        H  0.33078236  0.74405175  0.61793624     0.10200
C506        C  0.45057779  0.87829976  0.55196630    -0.15700
C507        C  0.47403852  0.91387290  0.53132375     0.03200
C508        C  0.46880144  0.94698970  0.53944877    -0.11100
C509        C  0.44221910  0.94083302  0.57482161    -0.01100
C510        C  0.42017326  0.90553153  0.59624123    -0.06200
H511        H  0.45516811  0.85414821  0.54456660     0.06200
H512        H  0.44008299  0.96407014  0.58972309     0.09600
Br513      Br  0.33680917  0.80093463  0.55655444    -0.06000
Br514      Br  0.45310340  0.81285829  0.71689500    -0.02900
Br515      Br  0.01317993  0.91041767  0.49663844     0.00000
Br516      Br  0.38717508  0.90297539  0.64371145    -0.04400
C517        C  0.38787709  0.61868827  0.84278456    -0.11800
C518        C  0.36590488  0.59696390  0.87847609     0.03700
C519        C  0.38226194  0.57989587  0.90392974    -0.12400
C520        C  0.42050467  0.58423126  0.89503312     0.18500
C521        C  0.44323033  0.60723745  0.86070716    -0.09400
C522        C  0.42710420  0.62445064  0.83535630    -0.02400
H523        H  0.36454368  0.56222239  0.93024978     0.05000
C524        C  0.43370806  0.56049380  0.91811507     0.20500
H525        H  0.44466127  0.64077770  0.80827375     0.10200
C526        C  0.41454512  0.52091232  0.90917729    -0.15700
C527        C  0.42954258  0.49745514  0.92364378     0.03200
C528        C  0.46462766  0.51326224  0.95164657    -0.11100
C529        C  0.48040325  0.55347665  0.96272201    -0.01100
C530        C  0.46657865  0.57668788  0.94572882    -0.06200
H531        H  0.38896485  0.50878197  0.88757865     0.06200
H532        H  0.00659536  0.56878852  0.98271821     0.09600
Br533      Br  0.49485877  0.61314750  0.84468267    -0.06000
Br534      Br  0.31360138  0.58926359  0.89471516    -0.02900
Br535      Br  0.40208012  0.94937797  0.89582075     0.00000
Br536      Br  0.49585006  0.63127796  0.95899077    -0.04400
C537        C  0.22306209  0.63024797  0.83827399    -0.11800
C538        C  0.19797066  0.64694749  0.83742447     0.03700
C539        C  0.16375469  0.63279792  0.86391026    -0.12400
C540        C  0.15470298  0.60333726  0.89282601     0.18500
C541        C  0.18249266  0.59000536  0.89682655    -0.09400
C542        C  0.21554185  0.60272660  0.86904703    -0.02400
H543        H  0.14306707  0.64370760  0.86069706     0.05000
C544        C  0.11313373  0.58225260  0.91188510     0.20500
H545        H  0.23522460  0.59060574  0.87114583     0.10200
C546        C  0.07967680  0.56171395  0.88526464    -0.15700
C547        C  0.04049303  0.53657987  0.90137597     0.03200
C548        C  0.03462055  0.52786972  0.94572880    -0.11100
C549        C  0.06613359  0.55752814  0.97095144    -0.01100
C550        C  0.10536119  0.58299399  0.95502633    -0.06200
H551        H  0.08425229  0.56424058  0.85139998     0.06200
H552        H  0.06116406  0.56136894  0.00341028     0.09600
Br553      Br  0.17709553  0.55364051  0.93821304    -0.06000
Br554      Br  0.20616601  0.68668987  0.79868824    -0.02900
Br555      Br  0.99926087  0.51457955  0.85823372     0.00000
Br556      Br  0.14657059  0.61925681  0.99288092    -0.04400
C557        C  0.38763523  0.77457232  0.82685697    -0.11800
C558        C  0.40510139  0.77532526  0.86615021     0.03700
C559        C  0.42068538  0.80872208  0.89187239    -0.12400
C560        C  0.41929039  0.84133947  0.87875790     0.18500
C561        C  0.40149506  0.84028954  0.83986748    -0.09400
C562        C  0.38542523  0.80699193  0.81464505    -0.02400
H563        H  0.43476118  0.80963272  0.92167604     0.05000
C564        C  0.44052458  0.87784439  0.90325115     0.20500
H565        H  0.37247682  0.80706732  0.78443539     0.10200
C566        C  0.47956955  0.90544175  0.89106675    -0.15700
C567        C  0.50044646  0.94269886  0.90953421     0.03200
C568        C  0.48059952  0.95431518  0.94170149    -0.11100
C569        C  0.44151465  0.92383067  0.95401236    -0.01100
C570        C  0.42172786  0.88662038  0.93581032    -0.06200
H571        H  0.49378415  0.89743986  0.86605577     0.06200
H572        H  0.42413652  0.92923432  0.97669958     0.09600
Br573      Br  0.40038062  0.88421221  0.81831816    -0.06000
Br574      Br  0.40771247  0.73174033  0.88675941    -0.02900
Br575      Br  0.55449588  0.96849107  0.88484863     0.00000
Br576      Br  0.36704900  0.85023907  0.95309269    -0.04400
O577        O  0.89878413  0.15944917  0.28451065    -0.81700
C578        C  0.75852060  0.11670906  0.19242311     0.97700
O579        O  0.77859918  0.10147774  0.20451680    -0.70800
O580        O  0.84899419  0.10573660  0.22176176    -0.74400
Al581      Al  0.81015884  0.11367855  0.25460634     1.49000
C582        C  0.87929207  0.12761866  0.19842850     0.93000
O583        O  0.89733005  0.23230769  0.20957838    -0.80600
O584        O  0.84625143  0.23476184  0.27094471    -0.74100
Al585      Al  0.89084279  0.19194730  0.24689194     1.90100
O586        O  0.83576420  0.21136598  0.18729008    -0.73200
O587        O  0.77921948  0.17193329  0.28905585    -0.73100
O588        O  0.76636294  0.14946823  0.20660920    -0.78700
O589        O  0.76659093  0.11194070  0.28844312    -0.76900
O590        O  0.83641952  0.16480109  0.24665915    -1.13100
O591        O  0.83741381  0.11827532  0.30638200    -0.72300
C592        C  0.87544633  0.13384400  0.31018751     0.98500
C593        C  0.87326582  0.23591020  0.18568075     0.94900
Al594      Al  0.80926738  0.18964459  0.23897483     1.55600
O595        O  0.89432645  0.16411835  0.19940345    -0.76900
C596        C  0.75894283  0.13768427  0.30184389     0.99000
C597        C  0.87427227  0.24119489  0.29657604     0.93900
O598        O  0.89172647  0.22148521  0.29481824    -0.82200
C599        C  0.99184995  0.48909214  0.02027853    -0.02300
C600        C  0.49229412  0.49492422  0.46536187    -0.02300
C601        C  0.89836061  0.11077119  0.17053275    -0.11800
C602        C  0.90007087  0.07745310  0.18157770     0.03700
C603        C  0.91888320  0.06309850  0.15435155    -0.12400
C604        C  0.93695065  0.08161864  0.11632454     0.18500
C605        C  0.93617722  0.11529630  0.10579672    -0.09400
C606        C  0.91719257  0.12961568  0.13276158    -0.02400
H607        H  0.91948153  0.03726070  0.16292138     0.05000
C608        C  0.95326880  0.06322602  0.08696265     0.20500
H609        H  0.91673729  0.15543645  0.12383547     0.10200
C610        C  0.92580391  0.03068647  0.06366918    -0.15800
C611        C  0.93807320  0.00830681  0.04009323     0.03200
C612        C  0.98021051  0.01763243  0.03979415    -0.11100
C613        C  0.00781704  0.05410154  0.05974776    -0.01100
C614        C  0.99478412  0.07566972  0.08383228    -0.06200
H615        H  0.89373250  0.02164441  0.06530952     0.06200
H616        H  0.04027637  0.06591979  0.05873813     0.09600
Br617      Br  0.95966678  0.14220754  0.05449680    -0.06000
Br618      Br  0.87993797  0.05163528  0.23445758    -0.02900
Br619      Br  0.89179196  0.96361138  0.01542841     0.00000
Br620      Br  0.03484836  0.12092967  0.11397504    -0.04400
C621        C  0.72327017  0.09503625  0.16390561    -0.11800
C622        C  0.71270643  0.11423078  0.13410013     0.03700
C623        C  0.67564292  0.09380389  0.11258455    -0.12400
C624        C  0.64861263  0.05428396  0.12011449     0.18500
C625        C  0.65997275  0.03455560  0.14810637    -0.09400
C626        C  0.69700206  0.05496303  0.16983805    -0.02400
H627        H  0.66777935  0.10883822  0.08987136     0.05000
C628        C  0.61009816  0.03383426  0.09605160     0.20500
H629        H  0.70464190  0.03970174  0.19246151     0.10200
C630        C  0.61169433  0.02529377  0.05379191    -0.15700
C631        C  0.57670994  0.00757711  0.02853846     0.03200
C632        C  0.53820891  0.00168155  0.04397320    -0.11100
C633        C  0.53726718  0.00554354  0.08904251    -0.01100
C634        C  0.57220991  0.02254544  0.11422579    -0.06200
H635        H  0.64090884  0.03184709  0.04058855     0.06200
H636        H  0.50934297  0.99869043  0.10513825     0.09600
Br637      Br  0.62604087  0.97976229  0.15708718    -0.06000
Br638      Br  0.74833636  0.16779707  0.12007808    -0.02900
Br639      Br  0.58926634  0.99146142  0.97705257     0.00000
Br640      Br  0.56694322  0.03244881  0.17273567    -0.04400
C641        C  0.88804246  0.27067651  0.15871732    -0.11800
C642        C  0.92416505  0.30636089  0.16805434     0.03700
C643        C  0.93450582  0.33933521  0.14438743    -0.12400
C644        C  0.90940123  0.33811474  0.11183467     0.18500
C645        C  0.87343076  0.30298979  0.10253200    -0.09400
C646        C  0.86304205  0.26971985  0.12580362    -0.02400
H647        H  0.96241751  0.36632801  0.15149280     0.05000
C648        C  0.92391679  0.37303479  0.08564323     0.20500
H649        H  0.83495359  0.24307591  0.11839431     0.10200
C650        C  0.94954590  0.37780458  0.05218338    -0.15700
C651        C  0.97167493  0.41321714  0.03120787     0.03200
C652        C  0.96536435  0.44567117  0.03975851    -0.11100
C653        C  0.93905346  0.43900927  0.07553255    -0.01100
C654        C  0.91892834  0.40405530  0.09766102    -0.06200
H655        H  0.95459816  0.35398012  0.04443418     0.06200
H656        H  0.93594771  0.46173848  0.09036305     0.09600
Br657      Br  0.83729349  0.29939539  0.05896495    -0.06000
Br658      Br  0.95986367  0.31373418  0.21410958    -0.02900
Br659      Br  0.51009349  0.40980639  0.99521569     0.00000
Br660      Br  0.88738545  0.40105914  0.14664771    -0.04400
C661        C  0.89327243  0.12010743  0.34223663    -0.11800
C662        C  0.87305082  0.10222856  0.38017125     0.03700
C663        C  0.88901973  0.08511500  0.40614154    -0.12400
C664        C  0.92531164  0.08595970  0.39536801     0.18500
C665        C  0.94654377  0.10549373  0.35872764    -0.09400
C666        C  0.93068682  0.12251628  0.33282523    -0.02400
H667        H  0.87255082  0.07025042  0.43435561     0.05000
C668        C  0.93781463  0.06204858  0.41902595     0.20500
H669        H  0.94680961  0.13599868  0.30394597     0.10200
C670        C  0.91796007  0.02239667  0.41058235    -0.15700
C671        C  0.93303714  0.99877490  0.42425236     0.03200
C672        C  0.96889667  0.01447084  0.45118522    -0.11100
C673        C  0.98565233  0.05498482  0.46159956    -0.01100
C674        C  0.97166780  0.07830480  0.44526315    -0.06200
H675        H  0.89180249  0.01036353  0.38975014     0.06200
H676        H  0.51260736  0.07035772  0.48053321     0.09600
Br677      Br  0.99563500  0.10693115  0.34078084    -0.06000
Br678      Br  0.82417630  0.10086630  0.39868974    -0.02900
Br679      Br  0.89982857  0.44808267  0.39489662     0.00000
Br680      Br  0.00215874  0.13315045  0.45690406    -0.04400
C681        C  0.72499640  0.12753944  0.33178542    -0.11800
C682        C  0.69788550  0.14165849  0.32727875     0.03700
C683        C  0.66368500  0.12812373  0.35366918    -0.12400
C684        C  0.65616801  0.10132082  0.38550005     0.18500
C685        C  0.68500940  0.08953233  0.39170831    -0.09400
C686        C  0.71849551  0.10212925  0.36458571    -0.02400
H687        H  0.64191311  0.13741798  0.34826292     0.05000
C688        C  0.61526326  0.08119425  0.40616001     0.20500
H689        H  0.73940525  0.09162520  0.36886282     0.10200
C690        C  0.58085274  0.06000411  0.38099192    -0.15700
C691        C  0.54239350  0.03518179  0.39872733     0.03200
C692        C  0.53813021  0.02758403  0.44342410    -0.11100
C693        C  0.57073441  0.05741292  0.46733276    -0.01100
C694        C  0.60916383  0.08280977  0.44961000    -0.06200
H695        H  0.58414347  0.06153747  0.34695954     0.06200
H696        H  0.56708467  0.06165174  0.50003289     0.09600
Br697      Br  0.68021063  0.05483038  0.43489295    -0.06000
Br698      Br  0.70340360  0.17655850  0.28341156    -0.02900
Br699      Br  0.49997977  0.01141797  0.35691437     0.00000
Br700      Br  0.65149750  0.12064199  0.48538410    -0.04400
C701        C  0.88802227  0.27400353  0.32657456    -0.11800
C702        C  0.90316651  0.27434373  0.36709390     0.03700
C703        C  0.91792137  0.30773796  0.39278865    -0.12400
C704        C  0.91755070  0.34061081  0.37858733     0.18500
C705        C  0.90107595  0.33955039  0.33885735    -0.09400
C706        C  0.88632530  0.30645059  0.31344093    -0.02400
H707        H  0.93050167  0.30841528  0.42345359     0.05000
C708        C  0.93829612  0.37731690  0.40298749     0.20500
H709        H  0.87469877  0.30665681  0.28248827     0.10200
C710        C  0.97674114  0.40583703  0.39010068    -0.15700
C711        C  0.99721679  0.44302594  0.40893994     0.03200
C712        C  0.97730690  0.45387483  0.44181403    -0.11100
C713        C  0.93860324  0.42266222  0.45426521    -0.01100
C714        C  0.91961244  0.38533251  0.43627018    -0.06200
H715        H  0.99097739  0.39848248  0.36454845     0.06200
H716        H  0.92119142  0.42724537  0.47715459     0.09600
Br717      Br  0.89945147  0.38305743  0.31680057    -0.06000
Br718      Br  0.90316071  0.22996039  0.38937539    -0.02900
Br719      Br  0.05122143  0.46951447  0.38423000     0.00000
Br720      Br  0.86619872  0.34742087  0.45545908    -0.04400
O721        O  0.89879810  0.15945775  0.78452209    -0.81700
C722        C  0.75853779  0.11673037  0.69243163     0.97700
O723        O  0.77861287  0.10149626  0.70452763    -0.70800
O724        O  0.84900536  0.10575078  0.72177007    -0.74400
Al725      Al  0.81017271  0.11369383  0.75461721     1.49000
C726        C  0.87930469  0.12763325  0.69843865     0.93000
O727        O  0.89735113  0.23232402  0.70959578    -0.80600
O728        O  0.84627618  0.23477941  0.77095915    -0.74100
Al729      Al  0.89086024  0.19195987  0.74690651     1.90100
O730        O  0.83578612  0.21138204  0.68730482    -0.73200
O731        O  0.77924368  0.17195438  0.78907013    -0.73100
O732        O  0.76638073  0.14948910  0.70662052    -0.78700
O733        O  0.76660903  0.11195979  0.78845787    -0.76900
O734        O  0.83643699  0.16481640  0.74667214    -1.13100
O735        O  0.83742669  0.11828610  0.80639198    -0.72300
C736        C  0.87545873  0.13385227  0.81019777     0.98500
C737        C  0.87328764  0.23592656  0.68569690     0.94900
Al738      Al  0.80928867  0.18966320  0.73898856     1.55600
O739        O  0.89434217  0.16413321  0.69941665    -0.76900
C740        C  0.75896835  0.13770713  0.80186285     0.99000
C741        C  0.87429522  0.24120839  0.79659128     0.93900
O742        O  0.89174467  0.22149463  0.79483476    -0.82200
C743        C  0.99183596  0.48908884  0.52026630    -0.02300
C744        C  0.49230401  0.49493283  0.96537147    -0.02300
C745        C  0.89837196  0.11078621  0.67054174    -0.11800
C746        C  0.90007218  0.07746166  0.68158039     0.03700
C747        C  0.91888419  0.06310798  0.65435342    -0.12400
C748        C  0.93696074  0.08163507  0.61633219     0.18500
C749        C  0.93619709  0.11531872  0.60581034    -0.09400
C750        C  0.91721311  0.12963762  0.63277633    -0.02400
H751        H  0.91947469  0.03726502  0.66291774     0.05000
C752        C  0.95327541  0.06324179  0.58696839     0.20500
H753        H  0.91676501  0.15546311  0.62385520     0.10200
C754        C  0.92580643  0.03069558  0.56368653    -0.15800
C755        C  0.93807303  0.00831351  0.54011240     0.03200
C756        C  0.98021163  0.01764404  0.53980384    -0.11100
C757        C  0.00782115  0.05411960  0.55974300    -0.01100
C758        C  0.99479121  0.07569018  0.58382669    -0.06200
H759        H  0.89373442  0.02165015  0.56533560     0.06200
H760        H  0.04028074  0.06594072  0.55872296     0.09600
Br761      Br  0.95969584  0.14223654  0.55451532    -0.06000
Br762      Br  0.87992471  0.05163184  0.73445209    -0.02900
Br763      Br  0.89178857  0.96360881  0.51546549     0.00000
Br764      Br  0.03486048  0.12095792  0.61395506    -0.04400
C765        C  0.72329173  0.09506099  0.66390635    -0.11800
C766        C  0.71273956  0.11425706  0.63409102     0.03700
C767        C  0.67567999  0.09383328  0.61256629    -0.12400
C768        C  0.64864199  0.05431499  0.62009782     0.18500
C769        C  0.65999239  0.03458467  0.64809801    -0.09400
C770        C  0.69701775  0.05498860  0.66983746    -0.02400
H771        H  0.66782398  0.10886960  0.58984816     0.05000
C772        C  0.61012097  0.03387009  0.59604316     0.20500
H773        H  0.70464899  0.03972554  0.69246717     0.10200
C774        C  0.61169903  0.02530737  0.55378665    -0.15700
C775        C  0.57670413  0.00758449  0.52854701     0.03200
C776        C  0.53821198  0.00170464  0.54399003    -0.11100
C777        C  0.53728860  0.00559022  0.58905775    -0.01100
C778        C  0.57224072  0.02259901  0.61422738    -0.06200
H779        H  0.64090607  0.03184602  0.54057556     0.06200
H780        H  0.50937233  0.99874959  0.60516231     0.09600
Br781      Br  0.62604945  0.97979344  0.65708388    -0.06000
Br782      Br  0.74838017  0.16782143  0.62007011    -0.02900
Br783      Br  0.58923015  0.99143914  0.47706457     0.00000
Br784      Br  0.56699796  0.03253346  0.67273354    -0.04400
C785        C  0.88806332  0.27069247  0.65873331    -0.11800
C786        C  0.92419500  0.30637305  0.66805767     0.03700
C787        C  0.93453372  0.33934697  0.64439072    -0.12400
C788        C  0.90941791  0.33812938  0.61185164     0.18500
C789        C  0.87343842  0.30300902  0.60256274    -0.09400
C790        C  0.86305237  0.26973959  0.62583297    -0.02400
H791        H  0.96245250  0.36633681  0.65148496     0.05000
C792        C  0.92392929  0.37304530  0.58565579     0.20500
H793        H  0.83495730  0.24309909  0.61843320     0.10200
C794        C  0.94955493  0.37781192  0.55219395    -0.15700
C795        C  0.97167025  0.41321792  0.53120412     0.03200
C796        C  0.96535519  0.44566992  0.53975069    -0.11100
C797        C  0.93904547  0.43900994  0.57552554    -0.01100
C798        C  0.91892928  0.40406092  0.59766272    -0.06200
H799        H  0.95461135  0.35398903  0.54445038     0.06200
H800        H  0.93593431  0.46173778  0.59035099     0.09600
Br801      Br  0.83728701  0.29942042  0.55901447    -0.06000
Br802      Br  0.95991124  0.31374165  0.71409362    -0.02900
Br803      Br  0.51007722  0.40979689  0.49520357     0.00000
Br804      Br  0.88738233  0.40106565  0.64664555    -0.04400
C805        C  0.89328202  0.12011128  0.84224467    -0.11800
C806        C  0.87305965  0.10223136  0.88017869     0.03700
C807        C  0.88902394  0.08511042  0.90614441    -0.12400
C808        C  0.92531271  0.08595052  0.89536705     0.18500
C809        C  0.94654706  0.10548795  0.85872927    -0.09400
C810        C  0.93069394  0.12251619  0.83283076    -0.02400
H811        H  0.87255473  0.07024513  0.93435805     0.05000
C812        C  0.93781492  0.06203709  0.91902079     0.20500
H813        H  0.94681788  0.13600046  0.80395263     0.10200
C814        C  0.91797136  0.02238786  0.91056131    -0.15700
C815        C  0.93305678  0.99876983  0.92422135     0.03200
C816        C  0.96890784  0.01446449  0.95116707    -0.11100
C817        C  0.98565397  0.05497475  0.96159264    -0.01100
C818        C  0.97166526  0.07829283  0.94526165    -0.06200
H819        H  0.89181923  0.01035618  0.88972178     0.06200
H820        H  0.51260599  0.07034236  0.98052395     0.09600
Br821      Br  0.99563797  0.10692486  0.84078229    -0.06000
Br822      Br  0.82419214  0.10087994  0.89870304    -0.02900
Br823      Br  0.89985497  0.44808869  0.89489506     0.00000
Br824      Br  0.00215093  0.13313737  0.95691034    -0.04400
C825        C  0.72503261  0.12756956  0.83181599    -0.11800
C826        C  0.69792825  0.14169774  0.82732349     0.03700
C827        C  0.66373157  0.12816325  0.85371855    -0.12400
C828        C  0.65621474  0.10135496  0.88554278     0.18500
C829        C  0.68505707  0.08956711  0.89174643    -0.09400
C830        C  0.71853679  0.10215989  0.86461551    -0.02400
H831        H  0.64196021  0.13745937  0.84831869     0.05000
C832        C  0.61530390  0.08121416  0.90618732     0.20500
H833        H  0.73944531  0.09165346  0.86888567     0.10200
C834        C  0.58090636  0.06001961  0.88100359    -0.15700
C835        C  0.54244086  0.03519116  0.89872108     0.03200
C836        C  0.53815832  0.02758830  0.94341616    -0.11100
C837        C  0.57074862  0.05741837  0.96733893    -0.01100
C838        C  0.60918456  0.08282334  0.94963370    -0.06200
H839        H  0.58421235  0.06155773  0.84697260     0.06200
H840        H  0.56708386  0.06164852  0.00003767     0.09600
Br841      Br  0.68027022  0.05487654  0.93493934    -0.06000
Br842      Br  0.70344869  0.17661054  0.78347019    -0.02900
Br843      Br  0.50004827  0.01143298  0.85688718     0.00000
Br844      Br  0.65149953  0.12065439  0.98542554    -0.04400
C845        C  0.88805152  0.27401837  0.82658751    -0.11800
C846        C  0.90318103  0.27435081  0.86711245     0.03700
C847        C  0.91794211  0.30774589  0.89280652    -0.12400
C848        C  0.91759368  0.34062745  0.87859741     0.18500
C849        C  0.90113676  0.33957632  0.83885962    -0.09400
C850        C  0.88637840  0.30647516  0.81344481    -0.02400
H851        H  0.93050891  0.30841648  0.92347736     0.05000
C852        C  0.93833684  0.37733029  0.90300232     0.20500
H853        H  0.87476473  0.30668717  0.78248680     0.10200
C854        C  0.97678284  0.40585196  0.89012011    -0.15700
C855        C  0.99725005  0.44304386  0.90895280     0.03200
C856        C  0.97733374  0.45388907  0.94182365    -0.11100
C857        C  0.93862909  0.42267536  0.95426966    -0.01100
C858        C  0.91964433  0.38534563  0.93627606    -0.06200
H859        H  0.99102327  0.39849808  0.86457168     0.06200
H860        H  0.92121196  0.42725843  0.97715076     0.09600
Br861      Br  0.89954654  0.38309723  0.81679104    -0.06000
Br862      Br  0.90314588  0.22995567  0.88940144    -0.02900
Br863      Br  0.05124786  0.46954419  0.88422593     0.00000
Br864      Br  0.86622462  0.34743497  0.95545073    -0.04400
O865        O  0.89326276  0.65764807  0.28419950    -0.81700
C866        C  0.75212953  0.61739194  0.19572424     0.97700
O867        O  0.77177779  0.60169472  0.20766804    -0.70800
O868        O  0.84111710  0.60376742  0.22325888    -0.74400
Al869      Al  0.80397536  0.61351762  0.25696194     1.49000
C870        C  0.87061650  0.62462092  0.19859863     0.93000
O871        O  0.89178303  0.73078474  0.20885522    -0.80600
O872        O  0.84311146  0.73519532  0.27296497    -0.74100
Al873      Al  0.88536656  0.69043282  0.24643130     1.90100
O874        O  0.82989963  0.71208156  0.18929602    -0.73200
O875        O  0.77587773  0.67341320  0.29289152    -0.73100
O876        O  0.76039641  0.65022817  0.21024689    -0.78700
O877        O  0.76172205  0.61305052  0.29207598    -0.76900
O878        O  0.83101485  0.66456373  0.24818630    -1.13100
O879        O  0.83216692  0.61818206  0.30792146    -0.72300
C880        C  0.87013445  0.63275976  0.31073468     0.98500
C881        C  0.86762926  0.73560442  0.18634372     0.94900
Al882      Al  0.80457738  0.69034366  0.24177494     1.55600
O883        O  0.88632811  0.66121972  0.19872801    -0.76900
C884        C  0.75548911  0.63943818  0.30638287     0.99000
C885        C  0.87209735  0.74144508  0.29710270     0.93900
O886        O  0.88886894  0.72118083  0.29416722    -0.82200
C887        C  0.99641505  0.99028580  0.01956224    -0.02300
C888        C  0.49624141  0.99561872  0.46458530    -0.02300
C889        C  0.88804676  0.60641991  0.17027793    -0.11800
C890        C  0.89198961  0.57466562  0.18289025     0.03700
C891        C  0.91056164  0.55985041  0.15583323    -0.12400
C892        C  0.92562437  0.57602626  0.11607383     0.18500
C893        C  0.92130847  0.60732335  0.10335764    -0.09400
C894        C  0.90316547  0.62247545  0.13042897    -0.02400
H895        H  0.91343819  0.53560088  0.16595418     0.05000
C896        C  0.94343048  0.55818800  0.08767444     0.20500
H897        H  0.90048569  0.64676245  0.12004670     0.10200
C898        C  0.91738025  0.52577603  0.06340175    -0.15800
C899        C  0.93132603  0.50451582  0.04011540     0.03200
C900        C  0.97390999  0.51511663  0.04066093    -0.11100
C901        C  0.00001765  0.55129843  0.06194114    -0.01100
C902        C  0.98523645  0.57151832  0.08601053    -0.06200
H903        H  0.88508629  0.51592483  0.06400922     0.06200
H904        H  0.03261791  0.56401532  0.06183914     0.09600
Br905      Br  0.93886405  0.62981662  0.04895327    -0.06000
Br906      Br  0.87523021  0.55182215  0.23761518    -0.02900
Br907      Br  0.88637650  0.45934753  0.01460772     0.00000
Br908      Br  0.02331946  0.61649162  0.11793114    -0.04400
C909        C  0.71725425  0.59609425  0.16654987    -0.11800
C910        C  0.70445275  0.61564122  0.13963104     0.03700
C911        C  0.66802323  0.59456051  0.11716894    -0.12400
C912        C  0.64417144  0.55408125  0.12045093     0.18500
C913        C  0.65812670  0.53422565  0.14486790    -0.09400
C914        C  0.69425196  0.55522902  0.16791876    -0.02400
H915        H  0.65819262  0.60981577  0.09699276     0.05000
C916        C  0.60575867  0.53313889  0.09646243     0.20500
H917        H  0.70375818  0.53957054  0.18785318     0.10200
C918        C  0.60726374  0.52433148  0.05432186    -0.15700
C919        C  0.57220024  0.50663164  0.02919433     0.03200
C920        C  0.53379474  0.50108771  0.04471159    -0.11100
C921        C  0.53296440  0.50495273  0.08976022    -0.01100
C922        C  0.56796693  0.52177298  0.11481106    -0.06200
H923        H  0.63646889  0.53091200  0.04106921     0.06200
H924        H  0.50507318  0.49793361  0.10602171     0.09600
Br925      Br  0.62877277  0.47853619  0.14728057    -0.06000
Br926      Br  0.73615773  0.67064637  0.13031923    -0.02900
Br927      Br  0.58494467  0.49129468  0.97723357     0.00000
Br928      Br  0.56299166  0.53065335  0.17366669    -0.04400
C929        C  0.88309101  0.77063011  0.15928187    -0.11800
C930        C  0.91941574  0.80600168  0.16908512     0.03700
C931        C  0.93143276  0.83903938  0.14475539    -0.12400
C932        C  0.90783975  0.83839895  0.11091902     0.18500
C933        C  0.87134243  0.80367569  0.10140798    -0.09400
C934        C  0.85921442  0.77028607  0.12548361    -0.02400
H935        H  0.95949920  0.86568579  0.15242467     0.05000
C936        C  0.92407138  0.87371329  0.08453978     0.20500
H937        H  0.83085260  0.74398219  0.11782055     0.10200
C938        C  0.95058734  0.87828046  0.05191171    -0.15700
C939        C  0.97405116  0.91386134  0.03128427     0.03200
C940        C  0.96880083  0.94697039  0.03941040    -0.11100
C941        C  0.94219821  0.94079709  0.07476769    -0.01100
C942        C  0.92015027  0.90548860  0.09617417    -0.06200
H943        H  0.95519072  0.85413651  0.04451370     0.06200
H944        H  0.94004916  0.96402628  0.08967086     0.09600
Br945      Br  0.83690036  0.80082253  0.05636807    -0.06000
Br946      Br  0.95302103  0.81290053  0.21695199    -0.02900
Br947      Br  0.51321892  0.91042941  0.99663646     0.00000
Br948      Br  0.88712255  0.90290955  0.14362587    -0.04400
C949        C  0.88788003  0.61870130  0.34278853    -0.11800
C950        C  0.86590235  0.59696792  0.37847331     0.03700
C951        C  0.88225688  0.57989562  0.40392403    -0.12400
C952        C  0.92050140  0.58423400  0.39503003     0.18500
C953        C  0.94323156  0.60724801  0.36071045    -0.09400
C954        C  0.92710892  0.62446708  0.33536401    -0.02400
H955        H  0.86453499  0.56221593  0.43023896     0.05000
C956        C  0.93370336  0.56049350  0.41810817     0.20500
H957        H  0.94466963  0.64080006  0.30828596     0.10200
C958        C  0.91453705  0.52091172  0.40916980    -0.15700
C959        C  0.92953071  0.49745135  0.42363639     0.03200
C960        C  0.96461772  0.51325619  0.45163563    -0.11100
C961        C  0.98039888  0.55347178  0.46270930    -0.01100
C962        C  0.96657523  0.57668510  0.44572025    -0.06200
H963        H  0.88895559  0.50878281  0.38757281     0.06200
H964        H  0.50659341  0.56878510  0.48270189     0.09600
Br965      Br  0.99486024  0.61315889  0.34468530    -0.06000
Br966      Br  0.81359353  0.58925848  0.39470540    -0.02900
Br967      Br  0.90201256  0.94937196  0.39591041     0.00000
Br968      Br  0.99584792  0.63127408  0.45898859    -0.04400
C969        C  0.72305418  0.63024117  0.33824725    -0.11800
C970        C  0.69795742  0.64693476  0.33739462     0.03700
C971        C  0.66373740  0.63277881  0.36387609    -0.12400
C972        C  0.65468466  0.60331488  0.39278815     0.18500
C973        C  0.68247414  0.58998253  0.39678579    -0.09400
C974        C  0.71552975  0.60271346  0.36901380    -0.02400
H975        H  0.64304833  0.64368681  0.36066294     0.05000
C976        C  0.61311727  0.58223184  0.41185241     0.20500
H977        H  0.73521355  0.59059366  0.37111201     0.10200
C978        C  0.57965697  0.56169055  0.38523704    -0.15700
C979        C  0.54047475  0.53655983  0.40135448     0.03200
C980        C  0.53460669  0.52785633  0.44570941    -0.11100
C981        C  0.56612380  0.55751738  0.47092591    -0.01100
C982        C  0.60535033  0.58297849  0.45499459    -0.06200
H983        H  0.58422848  0.56421281  0.35137172     0.06200
H984        H  0.56115775  0.56136448  0.50338468     0.09600
Br985      Br  0.67706543  0.55359943  0.43815392    -0.06000
Br986      Br  0.70615116  0.68667615  0.29865788    -0.02900
Br987      Br  0.49923811  0.51455487  0.35821700     0.00000
Br988      Br  0.64656712  0.61924126  0.49284280    -0.04400
C989        C  0.88761933  0.77457788  0.32685957    -0.11800
C990        C  0.90516994  0.77536653  0.36611216     0.03700
C991        C  0.92074012  0.80875940  0.39183882    -0.12400
C992        C  0.91924577  0.84133815  0.37877391     0.18500
C993        C  0.90136312  0.84025189  0.33992892    -0.09400
C994        C  0.88530966  0.80695837  0.31470046    -0.02400
H995        H  0.93488470  0.80969920  0.42160620     0.05000
C996        C  0.94048118  0.87784979  0.40325641     0.20500
H997        H  0.87229638  0.80701057  0.28452384     0.10200
C998        C  0.97952023  0.90544917  0.39105833    -0.15700
C999        C  0.00040782  0.94270095  0.40953760     0.03200
C1000       C  0.98057241  0.95431627  0.44171972    -0.11100
C1001       C  0.94149375  0.92382933  0.45404350    -0.01100
C1002       C  0.92170051  0.88662000  0.43583749    -0.06200
H1003       H  0.99372567  0.89745032  0.36603470     0.06200
H1004       H  0.92412500  0.92922856  0.47674747     0.09600
Br1005     Br  0.90011241  0.88412413  0.31844007    -0.06000
Br1006     Br  0.90792609  0.73184063  0.38666509    -0.02900
Br1007     Br  0.05445812  0.96848560  0.38485403     0.00000
Br1008     Br  0.86703891  0.85022577  0.45315845    -0.04400
O1009       O  0.89325802  0.65763353  0.78419621    -0.81700
C1010       C  0.75211732  0.61739082  0.69573826     0.97700
O1011       O  0.77176015  0.60168876  0.70768429    -0.70800
O1012       O  0.84110020  0.60375738  0.72325958    -0.74400
Al1013     Al  0.80396602  0.61351137  0.75697256     1.49000
C1014       C  0.87059824  0.62460932  0.69859675     0.93000
O1015       O  0.89177848  0.73077943  0.70886539    -0.80600
O1016       O  0.84311453  0.73519071  0.77297664    -0.74100
Al1017     Al  0.88536019  0.69042208  0.74643526     1.90100
O1018       O  0.82989667  0.71208090  0.68930835    -0.73200
O1019       O  0.77587859  0.67341357  0.79290421    -0.73100
O1020       O  0.76039072  0.65022951  0.71025915    -0.78700
O1021       O  0.76172077  0.61305038  0.79209664    -0.76900
O1022       O  0.83100862  0.66455719  0.74819501    -1.13100
O1023       O  0.83216475  0.61817357  0.80792714    -0.72300
C1024       C  0.87013224  0.63274776  0.81073451     0.98500
C1025       C  0.86762619  0.73560560  0.68635897     0.94900
Al1026     Al  0.80457546  0.69034185  0.74178712     1.55600
O1027       O  0.88631373  0.66120886  0.69872762    -0.76900
C1028       C  0.75549167  0.63944102  0.80640193     0.99000
C1029       C  0.87210132  0.74143688  0.79711082     0.93900
O1030       O  0.88886816  0.72116819  0.79417592    -0.82200
C1031       C  0.99641381  0.99029523  0.51957594    -0.02300
C1032       C  0.49626392  0.99561505  0.96455985    -0.02300
C1033       C  0.88802358  0.60640572  0.67027219    -0.11800
C1034       C  0.89195766  0.57464484  0.68287866     0.03700
C1035       C  0.91053003  0.55983056  0.65582057    -0.12400
C1036       C  0.92560038  0.57601265  0.61606513     0.18500
C1037       C  0.92128930  0.60731343  0.60335279    -0.09400
C1038       C  0.90314759  0.62246574  0.63042589    -0.02400
H1039       H  0.91340085  0.53557680  0.66593764     0.05000
C1040       C  0.94340844  0.55817684  0.58766448     0.20500
H1041       H  0.90047298  0.64675649  0.62004694     0.10200
C1042       C  0.91735954  0.52576533  0.56339071    -0.15800
C1043       C  0.93130731  0.50450813  0.54010171     0.03200
C1044       C  0.97389234  0.51511186  0.54064558    -0.11100
C1045       C  0.99999870  0.55129597  0.56192213    -0.01100
C1046       C  0.98521539  0.57151139  0.58599674    -0.06200
H1047       H  0.88506506  0.51591193  0.56399972     0.06200
H1048       H  0.03259979  0.56401714  0.56181274     0.09600
Br1049     Br  0.93884751  0.62980960  0.54894982    -0.06000
Br1050     Br  0.87518434  0.55178908  0.73759670    -0.02900
Br1051     Br  0.88635807  0.45933911  0.51459559     0.00000
Br1052     Br  0.02329670  0.61648272  0.61792083    -0.04400
C1053       C  0.71724226  0.59609680  0.66656119    -0.11800
C1054       C  0.70444180  0.61564704  0.63964552     0.03700
C1055       C  0.66801408  0.59456887  0.61717917    -0.12400
C1056       C  0.64416358  0.55408874  0.62045211     0.18500
C1057       C  0.65811879  0.53423028  0.64486445    -0.09400
C1058       C  0.69424133  0.55523098  0.66792069    -0.02400
H1059       H  0.65818436  0.60982681  0.59700599     0.05000
C1060       C  0.60575160  0.53314836  0.59646069     0.20500
H1061       H  0.70374694  0.53956948  0.68785103     0.10200
C1062       C  0.60725673  0.52433492  0.55432199    -0.15700
C1063       C  0.57219311  0.50663170  0.52919398     0.03200
C1064       C  0.53378762  0.50109113  0.54470670    -0.11100
C1065       C  0.53295728  0.50496281  0.58975469    -0.01100
C1066       C  0.56795948  0.52178578  0.61480653    -0.06200
H1067       H  0.63646159  0.53091199  0.54107164     0.06200
H1068       H  0.50506599  0.49794540  0.60601487     0.09600
Br1069     Br  0.62876855  0.47854016  0.64726293    -0.06000
Br1070     Br  0.73614667  0.67065340  0.63034150    -0.02900
Br1071     Br  0.58493596  0.49128426  0.47723972     0.00000
Br1072     Br  0.56298284  0.53067139  0.67366036    -0.04400
C1073       C  0.88308861  0.77063990  0.65930808    -0.11800
C1074       C  0.91944232  0.80599499  0.66908550     0.03700
C1075       C  0.93146264  0.83903906  0.64476532    -0.12400
C1076       C  0.90784416  0.83842386  0.61096776     0.18500
C1077       C  0.87131539  0.80372096  0.60148850    -0.09400
C1078       C  0.85918591  0.77032333  0.62555055    -0.02400
H1079       H  0.95955236  0.86567092  0.65241164     0.05000
C1080       C  0.92408012  0.87373866  0.58458838     0.20500
H1081       H  0.83080145  0.74403522  0.61790951     0.10200
C1082       C  0.95058223  0.87829446  0.55194980    -0.15700
C1083       C  0.97404250  0.91386933  0.53131007     0.03200
C1084       C  0.96880284  0.94698451  0.53943679    -0.11100
C1085       C  0.94221698  0.94082379  0.57480722    -0.01100
C1086       C  0.92017210  0.90552080  0.59622453    -0.06200
H1087       H  0.95517517  0.85414461  0.54454934     0.06200
H1088       H  0.94007794  0.96405894  0.58970950     0.09600
Br1089     Br  0.83683404  0.80090774  0.55650990    -0.06000
Br1090     Br  0.95309083  0.81286629  0.71690395    -0.02900
Br1091     Br  0.51317151  0.91041605  0.49664958     0.00000
Br1092     Br  0.88716952  0.90295959  0.64369268    -0.04400
C1093       C  0.88788049  0.61868993  0.84278664    -0.11800
C1094       C  0.86590834  0.59696453  0.87847771     0.03700
C1095       C  0.88226511  0.57989513  0.90392994    -0.12400
C1096       C  0.92050758  0.58423008  0.89503246     0.18500
C1097       C  0.94323303  0.60723700  0.86070679    -0.09400
C1098       C  0.92710720  0.62445154  0.83535736    -0.02400
H1099       H  0.86454693  0.56222124  0.93024978     0.05000
C1100       C  0.93371159  0.56049270  0.91811425     0.20500
H1101       H  0.94466423  0.64077919  0.80827508     0.10200
C1102       C  0.91454910  0.52091113  0.90917675    -0.15700
C1103       C  0.92954648  0.49745407  0.92364434     0.03200
C1104       C  0.96463106  0.51326131  0.95164786    -0.11100
C1105       C  0.98040622  0.55347579  0.96272287    -0.01100
C1106       C  0.96658188  0.57668692  0.94572853    -0.06200
H1107       H  0.88896908  0.50878046  0.88757779     0.06200
H1108       H  0.50659280  0.56878928  0.98271673     0.09600
Br1109     Br  0.99486100  0.61314669  0.84468097    -0.06000
Br1110     Br  0.81360538  0.58926488  0.89471808    -0.02900
Br1111     Br  0.90206308  0.94937934  0.89584299     0.00000
Br1112     Br  0.99585322  0.63127711  0.95898993    -0.04400
C1113       C  0.72306227  0.63025154  0.83827107    -0.11800
C1114       C  0.69796838  0.64694829  0.83741755     0.03700
C1115       C  0.66375021  0.63279693  0.86390073    -0.12400
C1116       C  0.65469873  0.60333742  0.89281817     0.18500
C1117       C  0.68249040  0.59000821  0.89682231    -0.09400
C1118       C  0.71554176  0.60273113  0.86904538    -0.02400
H1119       H  0.64306135  0.64370486  0.86068478     0.05000
C1120       C  0.61312937  0.58225265  0.91187793     0.20500
H1121       H  0.73522612  0.59061224  0.87114719     0.10200
C1122       C  0.57967179  0.56171251  0.88525851    -0.15700
C1123       C  0.54048826  0.53657883  0.90137117     0.03200
C1124       C  0.53461671  0.52786992  0.94572437    -0.11100
C1125       C  0.56613027  0.55752937  0.97094563    -0.01100
C1126       C  0.60535740  0.58299534  0.95501922    -0.06200
H1127       H  0.58424645  0.56423806  0.85139371     0.06200
H1128       H  0.56116146  0.56137081  0.00340456     0.09600
Br1129     Br  0.67709345  0.55364459  0.93821024    -0.06000
Br1130     Br  0.70616423  0.68668966  0.79867962    -0.02900
Br1131     Br  0.49925477  0.51457802  0.85823035     0.00000
Br1132     Br  0.64656693  0.61926032  0.99287225    -0.04400
C1133       C  0.88763423  0.77457418  0.82685855    -0.11800
C1134       C  0.90511864  0.77533488  0.86614305     0.03700
C1135       C  0.92069780  0.80873020  0.89186706    -0.12400
C1136       C  0.91927900  0.84133833  0.87876433     0.18500
C1137       C  0.90146434  0.84028031  0.83988399    -0.09400
C1138       C  0.88540044  0.80698445  0.81465911    -0.02400
H1139       H  0.93478889  0.80964741  0.92166270     0.05000
C1140       C  0.94051305  0.87784484  0.90325496     0.20500
H1141       H  0.87243774  0.80705480  0.78445674     0.10200
C1142       C  0.97955679  0.90544238  0.89106765    -0.15700
C1143       C  0.00043560  0.94269892  0.90953626     0.03200
C1144       C  0.98059118  0.95431546  0.94170638    -0.11100
C1145       C  0.94150742  0.92383070  0.95401977    -0.01100
C1146       C  0.92171908  0.88662050  0.93581726    -0.06200
H1147       H  0.99376958  0.89744057  0.86605463     0.06200
H1148       H  0.92413137  0.92923372  0.97671048     0.09600
Br1149     Br  0.90031674  0.88419092  0.81834981    -0.06000
Br1150     Br  0.90776337  0.73176357  0.88673909    -0.02900
Br1151     Br  0.05448442  0.96848945  0.88484932     0.00000
Br1152     Br  0.86704310  0.85023741  0.95310630    -0.04400
loop_ 
_geom_bond_atom_site_label_1 
_geom_bond_atom_site_label_2 
_geom_bond_distance 
_geom_bond_site_symmetry_2 
_ccdc_geom_bond_type 
O1           C16   1.260       .  A
O1           Al9   1.915       .  S
C2           O12   1.260       .  A
C2            O3   1.262       .  A
C2           C45   1.480       .  S
O3           Al5   1.905       .  S
O4            C6   1.273       .  A
O4           Al5   1.949       .  S
Al5          O13   1.936       .  S
Al5          O15   1.909       .  S
Al5          O14   1.780       .  S
C6           O19   1.267       .  A
C6           C25   1.490       .  S
O7           C17   1.262       .  A
O7           Al9   1.929       .  S
O8           C21   1.266       .  A
O8          Al18   1.909       .  S
Al9          O22   1.896       .  S
Al9          O19   1.897       .  S
Al9          O14   1.786       .  S
O10          C17   1.257       .  A
O10         Al18   1.892       .  S
O11          C20   1.254       .  A
O11         Al18   1.872       .  S
O12         Al18   1.901       .  S
O13          C20   1.268       .  A
O14         Al18   1.781       .  S
O15          C16   1.259       .  A
C16          C85   1.488       .  S
C17          C65   1.488       .  S
C20         C105   1.479       .  S
C21          O22   1.263       .  A
C21         C125   1.471       .  S
C23          C76   1.629       .  S
C23         C324   1.628       .  S
C23         C920   1.620       .  S
C23         C744   1.760   1_554  S
C24         C960   1.627       .  S
C24         C404   1.602   1_655  S
C24         C712   1.607       .  S
C24         C743   1.760       .  S
C25          C26   1.416       .  A
C25          C30   1.407       .  A
C26          C27   1.404       .  A
C26         Br42   1.922       .  S
C27          C28   1.404       .  A
C27          H31   1.084       .  S
C28          C32   1.488       .  S
C28          C29   1.407       .  A
C29          C30   1.402       .  A
C29         Br41   1.912       .  S
C30          H33   1.083       .  S
C32          C34   1.389       .  A
C32          C38   1.399       .  A
C34          C35   1.402       .  A
C34          H39   1.084       .  S
C35          C36   1.452       .  A
C35         Br43   1.921   1_545  S
C36         C311   1.623   1_545  S
C36          C37   1.433       .  A
C37          C38   1.404       .  A
C37          H40   1.076       .  S
C38         Br44   1.917       .  S
C45          C46   1.412       .  A
C45          C50   1.406       .  A
C46          C47   1.399       .  A
C46         Br62   1.920       .  S
C47          C48   1.402       .  A
C47          H51   1.084       .  S
C48          C52   1.479       .  S
C48          C49   1.407       .  A
C49          C50   1.401       .  A
C49         Br61   1.918   1_545  S
C50          H53   1.083       .  S
C52          C54   1.385       .  A
C52          C58   1.395       .  A
C54          C55   1.402       .  A
C54          H59   1.085       .  S
C55          C56   1.442       .  A
C55         Br63   1.887   1_544  S
C56         C887   1.620   1_445  S
C56          C57   1.436       .  A
C57          C58   1.399       .  A
C57          H60   1.078   1_545  S
C58         Br64   1.919       .  S
C65          C66   1.419       .  A
C65          C70   1.409       .  A
C66          C67   1.399       .  A
C66         Br82   1.923       .  S
C67          C68   1.400       .  A
C67          H71   1.084       .  S
C68          C72   1.480       .  S
C68          C69   1.405       .  A
C69          C70   1.401       .  A
C69         Br81   1.915       .  S
C70          H73   1.082       .  S
C72          C74   1.381       .  A
C72          C78   1.391       .  A
C74          C75   1.401       .  A
C74          H79   1.086       .  S
C75          C76   1.454       .  A
C75        Br659   1.901   1_554  S
C76          C77   1.440       .  A
C77          C78   1.402       .  A
C77          H80   1.073       .  S
C78         Br84   1.919       .  S
Br83        C651   1.901   1_456  S
C85          C86   1.414       .  A
C85          C90   1.407       .  A
C86          C87   1.405       .  A
C86        Br102   1.919       .  S
C87          C88   1.403       .  A
C87          H91   1.083       .  S
C88          C92   1.484       .  S
C88          C89   1.408       .  A
C89          C90   1.398       .  A
C89        Br101   1.921       .  S
C90          H93   1.083       .  S
C92          C94   1.387       .  A
C92          C98   1.390       .  A
C94          C95   1.408   1_545  A
C94          H99   1.085       .  S
C95          C96   1.459   1_565  A
C95        Br391   1.920       .  S
C96         C888   1.629   1_545  S
C96          C97   1.439       .  A
C97          C98   1.397       .  A
C97         H676   1.074       .  S
C98        Br104   1.918       .  S
H100        C673   1.074   1_455  S
Br103       C383   1.920       .  S
C105        C106   1.416       .  A
C105        C110   1.397       .  A
C106        C107   1.401       .  A
C106       Br122   1.921       .  S
C107        C108   1.403       .  A
C107        H111   1.084       .  S
C108        C112   1.491       .  S
C108        C109   1.415       .  A
C109        C110   1.398       .  A
C109       Br121   1.908       .  S
C110        H113   1.083       .  S
C112        C114   1.394       .  A
C112        C118   1.400       .  A
C114        C115   1.403       .  A
C114        H119   1.084       .  S
C115        C116   1.445       .  A
C115       Br123   1.928   1_455  S
C116        C312   1.600   1_445  S
C116        C117   1.422       .  A
C117        C118   1.407       .  A
C117        H120   1.066       .  S
C118       Br124   1.917       .  S
C125        C126   1.412       .  A
C125        C130   1.401       .  A
C126        C127   1.402       .  A
C126       Br142   1.921       .  S
C127        C128   1.403       .  A
C127        H131   1.083       .  S
C128        C132   1.472       .  S
C128        C129   1.405       .  A
C129        C130   1.389       .  A
C129       Br141   1.916       .  S
C130        H133   1.084       .  S
C132        C134   1.384       .  A
C132        C138   1.386       .  A
C134        C135   1.404       .  A
C134        H139   1.085       .  S
C135        C136   1.465       .  A
C135       Br143   1.934       .  S
C136        C600   1.607       .  S
C136        C137   1.421       .  A
C137        C138   1.398       .  A
C137        H140   1.052       .  S
C138       Br144   1.917       .  S
O145        C160   1.260       .  A
O145       Al153   1.915       .  S
C146        O156   1.260       .  A
C146        O147   1.262       .  A
C146        C189   1.480       .  S
O147       Al149   1.905       .  S
O148        C150   1.273       .  A
O148       Al149   1.949       .  S
Al149       O157   1.936       .  S
Al149       O159   1.909       .  S
Al149       O158   1.780       .  S
C150        O163   1.267       .  A
C150        C169   1.490       .  S
O151        C161   1.262       .  A
O151       Al153   1.929       .  S
O152        C165   1.266       .  A
O152       Al162   1.909       .  S
Al153       O166   1.896       .  S
Al153       O163   1.897       .  S
Al153       O158   1.786       .  S
O154        C161   1.257       .  A
O154       Al162   1.892       .  S
O155        C164   1.254       .  A
O155       Al162   1.872       .  S
O156       Al162   1.901       .  S
O157        C164   1.268       .  A
O158       Al162   1.781       .  S
O159        C160   1.259       .  A
C160        C229   1.488       .  S
C161        C209   1.488       .  S
C164        C249   1.479       .  S
C165        O166   1.263       .  A
C165        C269   1.471       .  S
C167        C468   1.628       .  S
C167       C1064   1.620       .  S
C167        C220   1.629       .  S
C167        C600   1.760       .  S
C168       C1104   1.627       .  S
C168        C548   1.602   1_655  S
C168        C856   1.607       .  S
C168        C599   1.760   1_556  S
C169        C170   1.416       .  A
C169        C174   1.407       .  A
C170        C171   1.403       .  A
C170       Br186   1.922       .  S
C171        C172   1.404       .  A
C171        H175   1.084       .  S
C172        C176   1.488       .  S
C172        C173   1.407       .  A
C173        C174   1.402       .  A
C173       Br185   1.912       .  S
C174        H177   1.083       .  S
C176        C178   1.389       .  A
C176        C182   1.399       .  A
C178        C179   1.402       .  A
C178        H183   1.085       .  S
C179        C180   1.452       .  A
C179       Br187   1.921   1_545  S
C180        C455   1.623   1_545  S
C180        C181   1.432       .  A
C181        C182   1.404       .  A
C181        H184   1.076       .  S
C182       Br188   1.917       .  S
C189        C190   1.412       .  A
C189        C194   1.406       .  A
C190        C191   1.399       .  A
C190       Br206   1.920       .  S
C191        C192   1.402       .  A
C191        H195   1.084       .  S
C192        C196   1.479       .  S
C192        C193   1.407       .  A
C193        C194   1.401       .  A
C193       Br205   1.918   1_545  S
C194        H197   1.083       .  S
C196        C198   1.385       .  A
C196        C202   1.395       .  A
C198        C199   1.402       .  A
C198        H203   1.085       .  S
C199        C200   1.442       .  A
C199       Br207   1.887   1_545  S
C200       C1031   1.620   1_445  S
C200        C201   1.436       .  A
C201        C202   1.399       .  A
C201        H204   1.078   1_545  S
C202       Br208   1.919       .  S
C209        C210   1.419       .  A
C209        C214   1.409       .  A
C210        C211   1.399       .  A
C210       Br226   1.923       .  S
C211        C212   1.400       .  A
C211        H215   1.084       .  S
C212        C216   1.480       .  S
C212        C213   1.405       .  A
C213        C214   1.401       .  A
C213       Br225   1.915       .  S
C214        H217   1.082       .  S
C216        C218   1.381       .  A
C216        C222   1.391       .  A
C218        C219   1.401       .  A
C218        H223   1.086       .  S
C219        C220   1.454       .  A
C219       Br803   1.901       .  S
C220        C221   1.440       .  A
C221        C222   1.402       .  A
C221        H224   1.073       .  S
C222       Br228   1.919       .  S
Br227       C795   1.901   1_455  S
C229        C230   1.414       .  A
C229        C234   1.407       .  A
C230        C231   1.405       .  A
C230       Br246   1.919       .  S
C231        C232   1.403       .  A
C231        H235   1.083       .  S
C232        C236   1.484       .  S
C232        C233   1.408       .  A
C233        C234   1.398       .  A
C233       Br245   1.921       .  S
C234        H237   1.083       .  S
C236        C238   1.387       .  A
C236        C242   1.390       .  A
C238        C239   1.408   1_545  A
C238        H243   1.085       .  S
C239        C240   1.459   1_565  A
C239       Br535   1.920       .  S
C240       C1032   1.629   1_545  S
C240        C241   1.439       .  A
C241        C242   1.397       .  A
C241        H820   1.074       .  S
C242       Br248   1.918       .  S
H244        C817   1.074   1_455  S
Br247       C527   1.920       .  S
C249        C250   1.416       .  A
C249        C254   1.397       .  A
C250        C251   1.401       .  A
C250       Br266   1.921       .  S
C251        C252   1.403       .  A
C251        H255   1.084       .  S
C252        C256   1.491       .  S
C252        C253   1.415       .  A
C253        C254   1.398       .  A
C253       Br265   1.908       .  S
C254        H257   1.083       .  S
C256        C258   1.394       .  A
C256        C262   1.400       .  A
C258        C259   1.403       .  A
C258        H263   1.084       .  S
C259        C260   1.445       .  A
C259       Br267   1.928       .  S
C260        C456   1.600   1_445  S
C260        C261   1.422       .  A
C261        C262   1.407       .  A
C261        H264   1.066   1_556  S
C262       Br268   1.917       .  S
C269        C270   1.412       .  A
C269        C274   1.401       .  A
C270        C271   1.402       .  A
C270       Br286   1.921       .  S
C271        C272   1.403       .  A
C271        H275   1.083       .  S
C272        C276   1.472       .  S
C272        C273   1.405       .  A
C273        C274   1.389       .  A
C273       Br285   1.916       .  S
C274        H277   1.084       .  S
C276        C278   1.384       .  A
C276        C282   1.386       .  A
C278        C279   1.404       .  A
C278        H283   1.085       .  S
C279        C280   1.465       .  A
C279       Br287   1.935       .  S
C280        C744   1.607       .  S
C280        C281   1.421       .  A
C281        C282   1.397       .  A
C281        H284   1.052       .  S
C282       Br288   1.917       .  S
O289        C304   1.263       .  A
O289       Al297   1.926       .  S
C290        O300   1.262       .  A
C290        O291   1.261       .  A
C290        C333   1.482       .  S
O291       Al293   1.898       .  S
O292        C294   1.272       .  A
O292       Al293   1.949       .  S
Al293       O301   1.938       .  S
Al293       O303   1.905       .  S
Al293       O302   1.782       .  S
C294        O307   1.267       .  A
C294        C313   1.492       .  S
O295        C305   1.263       .  A
O295       Al297   1.935       .  S
O296        C309   1.266       .  A
O296       Al306   1.907       .  S
Al297       O310   1.893       .  S
Al297       O307   1.904       .  S
Al297       O302   1.784       .  S
O298        C305   1.259       .  A
O298       Al306   1.902       .  S
O299        C308   1.253       .  A
O299       Al306   1.877       .  S
O300       Al306   1.908       .  S
O301        C308   1.267       .  A
O302       Al306   1.784       .  S
O303        C304   1.259       .  A
C304        C373   1.494       .  S
C305        C353   1.495       .  S
C308        C393   1.484       .  S
C309        O310   1.262       .  A
C309        C413   1.470       .  S
C311        C632   1.620   1_565  S
C311        C364   1.634       .  S
C311       C1032   1.761   1_554  S
C312        C672   1.629   1_565  S
C312       C1000   1.602       .  S
C312       C1031   1.761       .  S
C313        C314   1.416       .  A
C313        C318   1.406       .  A
C314        C315   1.406       .  A
C314       Br330   1.921       .  S
C315        C316   1.404       .  A
C315        H319   1.084       .  S
C316        C320   1.493       .  S
C316        C317   1.408       .  A
C317        C318   1.404       .  A
C317       Br329   1.910       .  S
C318        H321   1.083       .  S
C320        C322   1.389       .  A
C320        C326   1.400       .  A
C322        C323   1.404       .  A
C322        H327   1.084       .  S
C323        C324   1.454       .  A
C323       Br331   1.918       .  S
C324        C325   1.432       .  A
C325        C326   1.407       .  A
C325        H328   1.076       .  S
C326       Br332   1.917       .  S
C333        C334   1.414       .  A
C333        C338   1.408       .  A
C334        C335   1.399       .  A
C334       Br350   1.921       .  S
C335        C336   1.400       .  A
C335        H339   1.084       .  S
C336        C340   1.476       .  S
C336        C337   1.405       .  A
C337        C338   1.400       .  A
C337       Br349   1.918       .  S
C338        H341   1.083       .  S
C340        C342   1.383       .  A
C340        C346   1.393       .  A
C342        C343   1.402       .  A
C342        H347   1.085       .  S
C343        C344   1.445       .  A
C343       Br351   1.889   1_554  S
C344        C599   1.620   1_455  S
C344        C345   1.435       .  A
C345        C346   1.399       .  A
C345        H348   1.078       .  S
C346       Br352   1.918       .  S
C353        C354   1.419       .  A
C353        C358   1.410       .  A
C354        C355   1.401       .  A
C354       Br370   1.922       .  S
C355        C356   1.400       .  A
C355        H359   1.084       .  S
C356        C360   1.489       .  S
C356        C357   1.408       .  A
C357        C358   1.407       .  A
C357       Br369   1.914       .  S
C358        H361   1.083       .  S
C360        C362   1.384       .  A
C360        C366   1.394       .  A
C362        C363   1.406       .  A
C362        H367   1.085       .  S
C363        C364   1.452       .  A
C363       Br947   1.900   1_554  S
C364        C365   1.439       .  A
C365        C366   1.405       .  A
C365        H368   1.072       .  S
C366       Br372   1.919       .  S
Br371       C939   1.900   1_456  S
C373        C374   1.417       .  A
C373        C378   1.409       .  A
C374        C375   1.404       .  A
C374       Br390   1.920       .  S
C375        C376   1.402       .  A
C375        H379   1.084       .  S
C376        C380   1.486       .  S
C376        C377   1.408       .  A
C377        C378   1.400       .  A
C377       Br389   1.920       .  S
C378        H381   1.083       .  S
C380        C382   1.388       .  A
C380        C386   1.391       .  A
C382        C383   1.408       .  A
C382        H387   1.085       .  S
C383        C384   1.458       .  A
C384        C600   1.627       .  S
C384        C385   1.438       .  A
C385        C386   1.397       .  A
C385        H964   1.074       .  S
C386       Br392   1.918       .  S
H388        C961   1.074   1_455  S
C393        C394   1.417       .  A
C393        C398   1.399       .  A
C394        C395   1.402       .  A
C394       Br410   1.920       .  S
C395        C396   1.402       .  A
C395        H399   1.084       .  S
C396        C400   1.490       .  S
C396        C397   1.414       .  A
C397        C398   1.399       .  A
C397       Br409   1.907       .  S
C398        H401   1.083       .  S
C400        C402   1.396       .  A
C400        C406   1.399       .  A
C402        C403   1.405       .  A
C402        H407   1.084       .  S
C403        C404   1.442       .  A
C403       Br411   1.928   1_455  S
C404        C405   1.424       .  A
C405        C406   1.406       .  A
C405        H408   1.066       .  S
C406       Br412   1.916       .  S
C413        C414   1.413       .  A
C413        C418   1.402       .  A
C414        C415   1.401       .  A
C414       Br430   1.921       .  S
C415        C416   1.402       .  A
C415        H419   1.084       .  S
C416        C420   1.469       .  S
C416        C417   1.405       .  A
C417        C418   1.388       .  A
C417       Br429   1.916       .  S
C418        H421   1.084       .  S
C420        C422   1.382       .  A
C420        C426   1.387       .  A
C422        C423   1.402       .  A
C422        H427   1.086       .  S
C423        C424   1.465       .  A
C423       Br431   1.935       .  S
C424        C888   1.602       .  S
C424        C425   1.418       .  A
C425        C426   1.396       .  A
C425        H428   1.063       .  S
C426       Br432   1.917       .  S
O433        C448   1.263       .  A
O433       Al441   1.926       .  S
C434        O444   1.262       .  A
C434        O435   1.261       .  A
C434        C477   1.482       .  S
O435       Al437   1.898       .  S
O436        C438   1.272       .  A
O436       Al437   1.949       .  S
Al437       O445   1.938       .  S
Al437       O447   1.905       .  S
Al437       O446   1.782       .  S
C438        O451   1.267       .  A
C438        C457   1.492       .  S
O439        C449   1.263       .  A
O439       Al441   1.935       .  S
O440        C453   1.266       .  A
O440       Al450   1.907       .  S
Al441       O454   1.893       .  S
Al441       O451   1.904       .  S
Al441       O446   1.784       .  S
O442        C449   1.259       .  A
O442       Al450   1.902       .  S
O443        C452   1.253       .  A
O443       Al450   1.877       .  S
O444       Al450   1.908       .  S
O445        C452   1.267       .  A
O446       Al450   1.784       .  S
O447        C448   1.259       .  A
C448        C517   1.494       .  S
C449        C497   1.495       .  S
C452        C537   1.484       .  S
C453        O454   1.262       .  A
C453        C557   1.470       .  S
C455        C776   1.620   1_565  S
C455        C508   1.634       .  S
C455        C888   1.761       .  S
C456        C816   1.629   1_565  S
C456       C1144   1.602       .  S
C456        C887   1.761   1_556  S
C457        C458   1.416       .  A
C457        C462   1.406       .  A
C458        C459   1.406       .  A
C458       Br474   1.921       .  S
C459        C460   1.404       .  A
C459        H463   1.084       .  S
C460        C464   1.493       .  S
C460        C461   1.408       .  A
C461        C462   1.404       .  A
C461       Br473   1.910       .  S
C462        H465   1.083       .  S
C464        C466   1.389       .  A
C464        C470   1.400       .  A
C466        C467   1.404       .  A
C466        H471   1.084       .  S
C467        C468   1.454       .  A
C467       Br475   1.918       .  S
C468        C469   1.432       .  A
C469        C470   1.407       .  A
C469        H472   1.076       .  S
C470       Br476   1.917       .  S
C477        C478   1.414       .  A
C477        C482   1.408       .  A
C478        C479   1.399       .  A
C478       Br494   1.921       .  S
C479        C480   1.400       .  A
C479        H483   1.084       .  S
C480        C484   1.476       .  S
C480        C481   1.405       .  A
C481        C482   1.400       .  A
C481       Br493   1.918       .  S
C482        H485   1.083       .  S
C484        C486   1.383       .  A
C484        C490   1.393       .  A
C486        C487   1.402       .  A
C486        H491   1.085       .  S
C487        C488   1.445       .  A
C487       Br495   1.889       .  S
C488        C743   1.620   1_455  S
C488        C489   1.435       .  A
C489        C490   1.399       .  A
C489        H492   1.078       .  S
C490       Br496   1.918       .  S
C497        C498   1.419       .  A
C497        C502   1.410       .  A
C498        C499   1.401       .  A
C498       Br514   1.922       .  S
C499        C500   1.400       .  A
C499        H503   1.084       .  S
C500        C504   1.489       .  S
C500        C501   1.408       .  A
C501        C502   1.407       .  A
C501       Br513   1.914       .  S
C502        H505   1.083       .  S
C504        C506   1.384       .  A
C504        C510   1.394       .  A
C506        C507   1.406       .  A
C506        H511   1.085       .  S
C507        C508   1.452       .  A
C507      Br1091   1.900       .  S
C508        C509   1.439       .  A
C509        C510   1.405       .  A
C509        H512   1.072       .  S
C510       Br516   1.919       .  S
Br515      C1083   1.900   1_455  S
C517        C518   1.417       .  A
C517        C522   1.409       .  A
C518        C519   1.404       .  A
C518       Br534   1.920       .  S
C519        C520   1.402       .  A
C519        H523   1.084       .  S
C520        C524   1.486       .  S
C520        C521   1.408       .  A
C521        C522   1.400       .  A
C521       Br533   1.920       .  S
C522        H525   1.083       .  S
C524        C526   1.388       .  A
C524        C530   1.391       .  A
C526        C527   1.408       .  A
C526        H531   1.085       .  S
C527        C528   1.458       .  A
C528        C744   1.627       .  S
C528        C529   1.438       .  A
C529        C530   1.397       .  A
C529       H1108   1.074       .  S
C530       Br536   1.918       .  S
H532       C1105   1.074   1_455  S
C537        C538   1.417       .  A
C537        C542   1.399       .  A
C538        C539   1.402       .  A
C538       Br554   1.920       .  S
C539        C540   1.402       .  A
C539        H543   1.084       .  S
C540        C544   1.490       .  S
C540        C541   1.414       .  A
C541        C542   1.399       .  A
C541       Br553   1.907       .  S
C542        H545   1.083       .  S
C544        C546   1.396       .  A
C544        C550   1.399       .  A
C546        C547   1.405       .  A
C546        H551   1.084       .  S
C547        C548   1.442       .  A
C547       Br555   1.928   1_455  S
C548        C549   1.424       .  A
C549        C550   1.406       .  A
C549        H552   1.066   1_556  S
C550       Br556   1.916       .  S
C557        C558   1.413       .  A
C557        C562   1.402       .  A
C558        C559   1.401       .  A
C558       Br574   1.921       .  S
C559        C560   1.402       .  A
C559        H563   1.084       .  S
C560        C564   1.469       .  S
C560        C561   1.405       .  A
C561        C562   1.388       .  A
C561       Br573   1.916       .  S
C562        H565   1.084       .  S
C564        C566   1.382       .  A
C564        C570   1.387       .  A
C566        C567   1.402       .  A
C566        H571   1.086       .  S
C567        C568   1.465       .  A
C567       Br575   1.935       .  S
C568       C1032   1.602       .  S
C568        C569   1.418       .  A
C569        C570   1.396       .  A
C569        H572   1.063       .  S
C570       Br576   1.917       .  S
O577        C592   1.260       .  A
O577       Al585   1.915       .  S
C578        O588   1.260       .  A
C578        O579   1.262       .  A
C578        C621   1.480       .  S
O579       Al581   1.905       .  S
O580        C582   1.273       .  A
O580       Al581   1.949       .  S
Al581       O589   1.936       .  S
Al581       O591   1.909       .  S
Al581       O590   1.780       .  S
C582        O595   1.267       .  A
C582        C601   1.490       .  S
O583        C593   1.262       .  A
O583       Al585   1.929       .  S
O584        C597   1.266       .  A
O584       Al594   1.909       .  S
Al585       O598   1.896       .  S
Al585       O595   1.897       .  S
Al585       O590   1.786       .  S
O586        C593   1.257       .  A
O586       Al594   1.892       .  S
O587        C596   1.254       .  A
O587       Al594   1.872       .  S
O588       Al594   1.901       .  S
O589        C596   1.268       .  A
O590       Al594   1.781       .  S
O591        C592   1.259       .  A
C592        C661   1.488       .  S
C593        C641   1.488       .  S
C596        C681   1.479       .  S
C597        O598   1.263       .  A
C597        C701   1.471       .  S
C599        C900   1.628       .  S
C599        C652   1.629       .  S
C600        C980   1.602       .  S
C601        C602   1.416       .  A
C601        C606   1.407       .  A
C602        C603   1.404       .  A
C602       Br618   1.922       .  S
C603        C604   1.404       .  A
C603        H607   1.084       .  S
C604        C608   1.488       .  S
C604        C605   1.407       .  A
C605        C606   1.402       .  A
C605       Br617   1.912       .  S
C606        H609   1.083       .  S
C608        C610   1.389       .  A
C608        C614   1.399       .  A
C610        C611   1.402       .  A
C610        H615   1.084       .  S
C611        C612   1.452       .  A
C611       Br619   1.921   1_545  S
C612        C887   1.623   1_545  S
C612        C613   1.433   1_655  A
C613        C614   1.404   1_455  A
C613        H616   1.076       .  S
C614       Br620   1.917   1_655  S
C621        C622   1.412       .  A
C621        C626   1.406       .  A
C622        C623   1.399       .  A
C622       Br638   1.920       .  S
C623        C624   1.402       .  A
C623        H627   1.084       .  S
C624        C628   1.479       .  S
C624        C625   1.407       .  A
C625        C626   1.401       .  A
C625       Br637   1.918   1_545  S
C626        H629   1.083       .  S
C628        C630   1.385       .  A
C628        C634   1.395       .  A
C630        C631   1.402       .  A
C630        H635   1.085       .  S
C631        C632   1.442       .  A
C631       Br639   1.887   1_544  S
C632        C633   1.436       .  A
C633        C634   1.399       .  A
C633        H636   1.078   1_545  S
C634       Br640   1.919       .  S
C641        C642   1.419       .  A
C641        C646   1.409       .  A
C642        C643   1.399       .  A
C642       Br658   1.923       .  S
C643        C644   1.400       .  A
C643        H647   1.084       .  S
C644        C648   1.480       .  S
C644        C645   1.405       .  A
C645        C646   1.401       .  A
C645       Br657   1.915       .  S
C646        H649   1.082       .  S
C648        C650   1.381       .  A
C648        C654   1.391       .  A
C650        C651   1.401       .  A
C650        H655   1.086       .  S
C651        C652   1.454       .  A
C652        C653   1.440       .  A
C653        C654   1.402       .  A
C653        H656   1.073       .  S
C654       Br660   1.919       .  S
C661        C662   1.414       .  A
C661        C666   1.407       .  A
C662        C663   1.405       .  A
C662       Br678   1.919       .  S
C663        C664   1.403       .  A
C663        H667   1.083       .  S
C664        C668   1.484       .  S
C664        C665   1.408       .  A
C665        C666   1.398       .  A
C665       Br677   1.921       .  S
C666        H669   1.083       .  S
C668        C670   1.387       .  A
C668        C674   1.390       .  A
C670        C671   1.408   1_545  A
C670        H675   1.085       .  S
C671        C672   1.459   1_565  A
C671       Br967   1.920       .  S
C672        C673   1.439       .  A
C673        C674   1.397       .  A
C674       Br680   1.918   1_655  S
Br679       C959   1.920       .  S
C681        C682   1.416       .  A
C681        C686   1.397       .  A
C682        C683   1.401       .  A
C682       Br698   1.921       .  S
C683        C684   1.403       .  A
C683        H687   1.084       .  S
C684        C688   1.491       .  S
C684        C685   1.415       .  A
C685        C686   1.398       .  A
C685       Br697   1.908       .  S
C686        H689   1.083       .  S
C688        C690   1.394       .  A
C688        C694   1.400       .  A
C690        C691   1.403       .  A
C690        H695   1.084       .  S
C691        C692   1.445       .  A
C691       Br699   1.928       .  S
C692        C888   1.600   1_545  S
C692        C693   1.422       .  A
C693        C694   1.407       .  A
C693        H696   1.066       .  S
C694       Br700   1.917       .  S
C701        C702   1.412       .  A
C701        C706   1.401       .  A
C702        C703   1.402       .  A
C702       Br718   1.921       .  S
C703        C704   1.403       .  A
C703        H707   1.083       .  S
C704        C708   1.472       .  S
C704        C705   1.405       .  A
C705        C706   1.389       .  A
C705       Br717   1.916       .  S
C706        H709   1.084       .  S
C708        C710   1.384       .  A
C708        C714   1.386       .  A
C710        C711   1.404       .  A
C710        H715   1.085       .  S
C711        C712   1.465       .  A
C711       Br719   1.934   1_655  S
C712        C713   1.421       .  A
C713        C714   1.398       .  A
C713        H716   1.052       .  S
C714       Br720   1.917       .  S
O721        C736   1.260       .  A
O721       Al729   1.915       .  S
C722        O732   1.260       .  A
C722        O723   1.262       .  A
C722        C765   1.480       .  S
O723       Al725   1.905       .  S
O724        C726   1.273       .  A
O724       Al725   1.949       .  S
Al725       O733   1.936       .  S
Al725       O735   1.909       .  S
Al725       O734   1.780       .  S
C726        O739   1.267       .  A
C726        C745   1.490       .  S
O727        C737   1.262       .  A
O727       Al729   1.929       .  S
O728        C741   1.266       .  A
O728       Al738   1.909       .  S
Al729       O742   1.896       .  S
Al729       O739   1.897       .  S
Al729       O734   1.786       .  S
O730        C737   1.257       .  A
O730       Al738   1.892       .  S
O731        C740   1.254       .  A
O731       Al738   1.872       .  S
O732       Al738   1.901       .  S
O733        C740   1.268       .  A
O734       Al738   1.781       .  S
O735        C736   1.259       .  A
C736        C805   1.488       .  S
C737        C785   1.488       .  S
C740        C825   1.479       .  S
C741        O742   1.263       .  A
C741        C845   1.471       .  S
C743       C1044   1.628       .  S
C743        C796   1.629       .  S
C744       C1124   1.602       .  S
C745        C746   1.416       .  A
C745        C750   1.407       .  A
C746        C747   1.404       .  A
C746       Br762   1.922       .  S
C747        C748   1.404       .  A
C747        H751   1.084       .  S
C748        C752   1.488       .  S
C748        C749   1.407       .  A
C749        C750   1.402       .  A
C749       Br761   1.912       .  S
C750        H753   1.083       .  S
C752        C754   1.389       .  A
C752        C758   1.399       .  A
C754        C755   1.402       .  A
C754        H759   1.084       .  S
C755        C756   1.452       .  A
C755       Br763   1.921   1_545  S
C756       C1031   1.623   1_545  S
C756        C757   1.432   1_655  A
C757        C758   1.404   1_455  A
C757        H760   1.076       .  S
C758       Br764   1.917   1_655  S
C765        C766   1.412       .  A
C765        C770   1.406       .  A
C766        C767   1.399       .  A
C766       Br782   1.920       .  S
C767        C768   1.402       .  A
C767        H771   1.084       .  S
C768        C772   1.479       .  S
C768        C769   1.407       .  A
C769        C770   1.401       .  A
C769       Br781   1.918   1_545  S
C770        H773   1.083       .  S
C772        C774   1.385       .  A
C772        C778   1.395       .  A
C774        C775   1.402       .  A
C774        H779   1.085       .  S
C775        C776   1.442       .  A
C775       Br783   1.887   1_545  S
C776        C777   1.436       .  A
C777        C778   1.399       .  A
C777        H780   1.078   1_545  S
C778       Br784   1.919       .  S
C785        C786   1.419       .  A
C785        C790   1.409       .  A
C786        C787   1.399       .  A
C786       Br802   1.923       .  S
C787        C788   1.400       .  A
C787        H791   1.084       .  S
C788        C792   1.480       .  S
C788        C789   1.405       .  A
C789        C790   1.401       .  A
C789       Br801   1.915       .  S
C790        H793   1.082       .  S
C792        C794   1.381       .  A
C792        C798   1.391       .  A
C794        C795   1.401       .  A
C794        H799   1.086       .  S
C795        C796   1.454       .  A
C796        C797   1.440       .  A
C797        C798   1.402       .  A
C797        H800   1.073       .  S
C798       Br804   1.919       .  S
C805        C806   1.414       .  A
C805        C810   1.407       .  A
C806        C807   1.405       .  A
C806       Br822   1.919       .  S
C807        C808   1.403       .  A
C807        H811   1.083       .  S
C808        C812   1.484       .  S
C808        C809   1.408       .  A
C809        C810   1.398       .  A
C809       Br821   1.921       .  S
C810        H813   1.083       .  S
C812        C814   1.387       .  A
C812        C818   1.390       .  A
C814        C815   1.408   1_545  A
C814        H819   1.085       .  S
C815        C816   1.459   1_565  A
C815      Br1111   1.920       .  S
C816        C817   1.439       .  A
C817        C818   1.397       .  A
C818       Br824   1.918   1_655  S
Br823      C1103   1.920       .  S
C825        C826   1.416       .  A
C825        C830   1.397       .  A
C826        C827   1.401       .  A
C826       Br842   1.921       .  S
C827        C828   1.403       .  A
C827        H831   1.084       .  S
C828        C832   1.491       .  S
C828        C829   1.415       .  A
C829        C830   1.398       .  A
C829       Br841   1.908       .  S
C830        H833   1.083       .  S
C832        C834   1.394       .  A
C832        C838   1.400       .  A
C834        C835   1.403       .  A
C834        H839   1.084       .  S
C835        C836   1.445       .  A
C835       Br843   1.928       .  S
C836       C1032   1.600   1_545  S
C836        C837   1.422       .  A
C837        C838   1.407       .  A
C837        H840   1.066   1_556  S
C838       Br844   1.917       .  S
C845        C846   1.412       .  A
C845        C850   1.401       .  A
C846        C847   1.402       .  A
C846       Br862   1.921       .  S
C847        C848   1.403       .  A
C847        H851   1.083       .  S
C848        C852   1.472       .  S
C848        C849   1.405       .  A
C849        C850   1.389       .  A
C849       Br861   1.916       .  S
C850        H853   1.084       .  S
C852        C854   1.384       .  A
C852        C858   1.386       .  A
C854        C855   1.404       .  A
C854        H859   1.085       .  S
C855        C856   1.465       .  A
C855       Br863   1.935   1_655  S
C856        C857   1.421       .  A
C857        C858   1.398       .  A
C857        H860   1.052       .  S
C858       Br864   1.917       .  S
O865        C880   1.263       .  A
O865       Al873   1.926       .  S
C866        O876   1.262       .  A
C866        O867   1.261       .  A
C866        C909   1.482       .  S
O867       Al869   1.898       .  S
O868        C870   1.272       .  A
O868       Al869   1.949       .  S
Al869       O877   1.938       .  S
Al869       O879   1.905       .  S
Al869       O878   1.782       .  S
C870        O883   1.267       .  A
C870        C889   1.492       .  S
O871        C881   1.263       .  A
O871       Al873   1.935       .  S
O872        C885   1.266       .  A
O872       Al882   1.907       .  S
Al873       O886   1.893       .  S
Al873       O883   1.904       .  S
Al873       O878   1.784       .  S
O874        C881   1.259       .  A
O874       Al882   1.902       .  S
O875        C884   1.253       .  A
O875       Al882   1.877       .  S
O876       Al882   1.908       .  S
O877        C884   1.267       .  A
O878       Al882   1.784       .  S
O879        C880   1.259       .  A
C880        C949   1.494       .  S
C881        C929   1.495       .  S
C884        C969   1.484       .  S
C885        O886   1.262       .  A
C885        C989   1.470       .  S
C887        C940   1.634       .  S
C889        C890   1.416       .  A
C889        C894   1.406       .  A
C890        C891   1.406       .  A
C890       Br906   1.921       .  S
C891        C892   1.404       .  A
C891        H895   1.084       .  S
C892        C896   1.493       .  S
C892        C893   1.408       .  A
C893        C894   1.404       .  A
C893       Br905   1.910       .  S
C894        H897   1.083       .  S
C896        C898   1.389       .  A
C896        C902   1.400       .  A
C898        C899   1.404       .  A
C898        H903   1.084       .  S
C899        C900   1.454       .  A
C899       Br907   1.918       .  S
C900        C901   1.432   1_655  A
C901        C902   1.407   1_455  A
C901        H904   1.076       .  S
C902       Br908   1.917   1_655  S
C909        C910   1.414       .  A
C909        C914   1.408       .  A
C910        C911   1.399       .  A
C910       Br926   1.921       .  S
C911        C912   1.400       .  A
C911        H915   1.084       .  S
C912        C916   1.476       .  S
C912        C913   1.405       .  A
C913        C914   1.400       .  A
C913       Br925   1.918       .  S
C914        H917   1.083       .  S
C916        C918   1.383       .  A
C916        C922   1.393       .  A
C918        C919   1.402       .  A
C918        H923   1.085       .  S
C919        C920   1.445       .  A
C919       Br927   1.889   1_554  S
C920        C921   1.435       .  A
C921        C922   1.399       .  A
C921        H924   1.078       .  S
C922       Br928   1.918       .  S
C929        C930   1.419       .  A
C929        C934   1.410       .  A
C930        C931   1.401       .  A
C930       Br946   1.922       .  S
C931        C932   1.400       .  A
C931        H935   1.084       .  S
C932        C936   1.489       .  S
C932        C933   1.408       .  A
C933        C934   1.407       .  A
C933       Br945   1.914       .  S
C934        H937   1.083       .  S
C936        C938   1.384       .  A
C936        C942   1.394       .  A
C938        C939   1.406       .  A
C938        H943   1.085       .  S
C939        C940   1.452       .  A
C940        C941   1.439       .  A
C941        C942   1.405       .  A
C941        H944   1.072       .  S
C942       Br948   1.919       .  S
C949        C950   1.417       .  A
C949        C954   1.409       .  A
C950        C951   1.404       .  A
C950       Br966   1.920       .  S
C951        C952   1.402       .  A
C951        H955   1.084       .  S
C952        C956   1.486       .  S
C952        C953   1.408       .  A
C953        C954   1.400       .  A
C953       Br965   1.920       .  S
C954        H957   1.083       .  S
C956        C958   1.388       .  A
C956        C962   1.391       .  A
C958        C959   1.408       .  A
C958        H963   1.085       .  S
C959        C960   1.458       .  A
C960        C961   1.438       .  A
C961        C962   1.397       .  A
C962       Br968   1.918       .  S
C969        C970   1.417       .  A
C969        C974   1.399       .  A
C970        C971   1.402       .  A
C970       Br986   1.920       .  S
C971        C972   1.402       .  A
C971        H975   1.084       .  S
C972        C976   1.490       .  S
C972        C973   1.414       .  A
C973        C974   1.399       .  A
C973       Br985   1.907       .  S
C974        H977   1.083       .  S
C976        C978   1.396       .  A
C976        C982   1.399       .  A
C978        C979   1.405       .  A
C978        H983   1.084       .  S
C979        C980   1.442       .  A
C979       Br987   1.928       .  S
C980        C981   1.424       .  A
C981        C982   1.406       .  A
C981        H984   1.066       .  S
C982       Br988   1.916       .  S
C989        C990   1.413       .  A
C989        C994   1.402       .  A
C990        C991   1.401       .  A
C990      Br1006   1.921       .  S
C991        C992   1.402       .  A
C991        H995   1.084       .  S
C992        C996   1.469       .  S
C992        C993   1.405       .  A
C993        C994   1.388       .  A
C993      Br1005   1.916       .  S
C994        H997   1.084       .  S
C996        C998   1.382       .  A
C996       C1002   1.387       .  A
C998        C999   1.402   1_655  A
C998       H1003   1.086       .  S
C999       C1000   1.465   1_455  A
C999      Br1007   1.935       .  S
C1000      C1001   1.418       .  A
C1001      C1002   1.396       .  A
C1001      H1004   1.063       .  S
C1002     Br1008   1.917       .  S
O1009      C1024   1.263       .  A
O1009     Al1017   1.926       .  S
C1010      O1020   1.262       .  A
C1010      O1011   1.261       .  A
C1010      C1053   1.482       .  S
O1011     Al1013   1.898       .  S
O1012      C1014   1.272       .  A
O1012     Al1013   1.949       .  S
Al1013     O1021   1.938       .  S
Al1013     O1023   1.905       .  S
Al1013     O1022   1.782       .  S
C1014      O1027   1.267       .  A
C1014      C1033   1.492       .  S
O1015      C1025   1.263       .  A
O1015     Al1017   1.935       .  S
O1016      C1029   1.266       .  A
O1016     Al1026   1.907       .  S
Al1017     O1030   1.893       .  S
Al1017     O1027   1.904       .  S
Al1017     O1022   1.784       .  S
O1018      C1025   1.259       .  A
O1018     Al1026   1.902       .  S
O1019      C1028   1.253       .  A
O1019     Al1026   1.877       .  S
O1020     Al1026   1.908       .  S
O1021      C1028   1.267       .  A
O1022     Al1026   1.784       .  S
O1023      C1024   1.259       .  A
C1024      C1093   1.494       .  S
C1025      C1073   1.495       .  S
C1028      C1113   1.484       .  S
C1029      O1030   1.262       .  A
C1029      C1133   1.470       .  S
C1031      C1084   1.634       .  S
C1033      C1034   1.416       .  A
C1033      C1038   1.406       .  A
C1034      C1035   1.406       .  A
C1034     Br1050   1.921       .  S
C1035      C1036   1.404       .  A
C1035      H1039   1.084       .  S
C1036      C1040   1.493       .  S
C1036      C1037   1.408       .  A
C1037      C1038   1.404       .  A
C1037     Br1049   1.910       .  S
C1038      H1041   1.083       .  S
C1040      C1042   1.389       .  A
C1040      C1046   1.400       .  A
C1042      C1043   1.404       .  A
C1042      H1047   1.084       .  S
C1043      C1044   1.454       .  A
C1043     Br1051   1.918       .  S
C1044      C1045   1.432       .  A
C1045      C1046   1.407       .  A
C1045      H1048   1.076   1_655  S
C1046     Br1052   1.917   1_655  S
C1053      C1054   1.414       .  A
C1053      C1058   1.408       .  A
C1054      C1055   1.399       .  A
C1054     Br1070   1.921       .  S
C1055      C1056   1.400       .  A
C1055      H1059   1.084       .  S
C1056      C1060   1.476       .  S
C1056      C1057   1.405       .  A
C1057      C1058   1.400       .  A
C1057     Br1069   1.918       .  S
C1058      H1061   1.083       .  S
C1060      C1062   1.383       .  A
C1060      C1066   1.393       .  A
C1062      C1063   1.402       .  A
C1062      H1067   1.085       .  S
C1063      C1064   1.445       .  A
C1063     Br1071   1.889       .  S
C1064      C1065   1.435       .  A
C1065      C1066   1.399       .  A
C1065      H1068   1.078       .  S
C1066     Br1072   1.918       .  S
C1073      C1074   1.419       .  A
C1073      C1078   1.410       .  A
C1074      C1075   1.401       .  A
C1074     Br1090   1.922       .  S
C1075      C1076   1.400       .  A
C1075      H1079   1.084       .  S
C1076      C1080   1.489       .  S
C1076      C1077   1.408       .  A
C1077      C1078   1.407       .  A
C1077     Br1089   1.914       .  S
C1078      H1081   1.083       .  S
C1080      C1082   1.384       .  A
C1080      C1086   1.394       .  A
C1082      C1083   1.406       .  A
C1082      H1087   1.085       .  S
C1083      C1084   1.452       .  A
C1084      C1085   1.439       .  A
C1085      C1086   1.405       .  A
C1085      H1088   1.072       .  S
C1086     Br1092   1.919       .  S
C1093      C1094   1.417       .  A
C1093      C1098   1.409       .  A
C1094      C1095   1.404       .  A
C1094     Br1110   1.920       .  S
C1095      C1096   1.402       .  A
C1095      H1099   1.084       .  S
C1096      C1100   1.486       .  S
C1096      C1097   1.408       .  A
C1097      C1098   1.400       .  A
C1097     Br1109   1.920       .  S
C1098      H1101   1.083       .  S
C1100      C1102   1.388       .  A
C1100      C1106   1.391       .  A
C1102      C1103   1.408       .  A
C1102      H1107   1.085       .  S
C1103      C1104   1.458       .  A
C1104      C1105   1.438       .  A
C1105      C1106   1.397       .  A
C1106     Br1112   1.918       .  S
C1113      C1114   1.417       .  A
C1113      C1118   1.399       .  A
C1114      C1115   1.402       .  A
C1114     Br1130   1.920       .  S
C1115      C1116   1.402       .  A
C1115      H1119   1.084       .  S
C1116      C1120   1.490       .  S
C1116      C1117   1.414       .  A
C1117      C1118   1.399       .  A
C1117     Br1129   1.907       .  S
C1118      H1121   1.083       .  S
C1120      C1122   1.396       .  A
C1120      C1126   1.399       .  A
C1122      C1123   1.405       .  A
C1122      H1127   1.084       .  S
C1123      C1124   1.442       .  A
C1123     Br1131   1.928       .  S
C1124      C1125   1.424       .  A
C1125      C1126   1.406       .  A
C1125      H1128   1.066   1_556  S
C1126     Br1132   1.916       .  S
C1133      C1134   1.413       .  A
C1133      C1138   1.402       .  A
C1134      C1135   1.401       .  A
C1134     Br1150   1.921       .  S
C1135      C1136   1.402       .  A
C1135      H1139   1.084       .  S
C1136      C1140   1.469       .  S
C1136      C1137   1.405       .  A
C1137      C1138   1.388       .  A
C1137     Br1149   1.916       .  S
C1138      H1141   1.084       .  S
C1140      C1142   1.382       .  A
C1140      C1146   1.387       .  A
C1142      C1143   1.402   1_655  A
C1142      H1147   1.086       .  S
C1143      C1144   1.465   1_455  A
C1143     Br1151   1.935       .  S
C1144      C1145   1.418       .  A
C1145      C1146   1.396       .  A
C1145      H1148   1.063       .  S
C1146     Br1152   1.917       .  S
