geometry optimzed in LAMMPS
_audit_creation_date              2020-11-30 
_audit_creation_method            'lammps2cif' 
_symmetry_space_group_name_H-M    'P1' 
_symmetry_Int_Tables_number       1 
_symmetry_cell_setting            triclinic 
loop_ 
_symmetry_equiv_pos_as_xyz 
  x,y,z 
_cell_length_a                    33.947958600321606 
_cell_length_b                    33.041031679794926 
_cell_length_c                    35.31469306292156 
_cell_angle_alpha                 88.818061843332 
_cell_angle_beta                  92.29305076531857 
_cell_angle_gamma                 118.90411279551262 
loop_ 
_atom_site_label 
_atom_site_type_symbol 
_atom_site_fract_x 
_atom_site_fract_y 
_atom_site_fract_z 
_atom_site_charge 
C1          C  0.04087958  0.00938985  0.08795721     0.03080
C2          C  0.03390489  0.04458403  0.60138968    -0.13070
C3          C  0.99229012  0.04227740  0.59434426     0.00580
C4          C  0.45515579  0.49955160  0.58574764    -0.11600
C5          C  0.46188312  0.46459921  0.07143226     0.03070
C6          C  0.50405083  0.46703637  0.07792424    -0.11020
H7          H  0.06284369  0.07729722  0.60866394     0.08670
H8          H  0.42212186  0.49656866  0.58308100     0.06200
H9          H  0.51108594  0.44144207  0.06587413     0.06040
C10         C  0.20148830  0.29728015  0.37001012     0.03080
C11         C  0.17163690  0.25892174  0.39036324    -0.13070
C12         C  0.14275547  0.26315618  0.41561486     0.00580
C13         C  0.15075222  0.30793498  0.42514350    -0.11600
C14         C  0.17736813  0.34538681  0.40196481     0.03070
C15         C  0.20119002  0.33856251  0.37385944    -0.11020
H16         H  0.16681282  0.22540138  0.38224863     0.08670
H17         H  0.12901089  0.31168641  0.44455971     0.06200
H18         H  0.21730740  0.36434501  0.35214923     0.06040
C19         C  0.34936429  0.17427941  0.12704897     0.03080
C20         C  0.32785784  0.12824021  0.13794200    -0.13070
C21         C  0.34406567  0.11464346  0.17018401     0.00580
C22         C  0.38666874  0.14453503  0.18601722    -0.11600
C23         C  0.41029872  0.19082046  0.17332298     0.03070
C24         C  0.38867177  0.20550561  0.14657278    -0.11020
H25         H  0.29453956  0.10535967  0.12605931     0.08670
H26         H  0.39944823  0.13211481  0.20939902     0.06200
H27         H  0.40015753  0.24184711  0.14279451     0.06040
C28         C  0.29939849  0.27876194  0.42536191     0.03080
C29         C  0.34036869  0.31792775  0.43345337    -0.13070
C30         C  0.34333549  0.34942247  0.45954974     0.00580
C31         C  0.30496018  0.34615412  0.97508943    -0.11600
C32         C  0.26194449  0.31004100  0.96634687     0.03070
C33         C  0.25924502  0.27398326  0.44241449    -0.11020
H34         H  0.37130153  0.32303605  0.42141079     0.08670
H35         H  0.30955252  0.37153836  0.99626314     0.06200
H36         H  0.22733352  0.24318151  0.43741210     0.06040
C37         C  0.35219083  0.27485467  0.27671592     0.03080
C38         C  0.31058114  0.26164130  0.25810853    -0.13070
C39         C  0.30088401  0.29618415  0.24541197     0.00580
C40         C  0.33643265  0.33749891  0.23231666    -0.11600
C41         C  0.38049058  0.35109120  0.24587705     0.03070
C42         C  0.38828357  0.31971292  0.26915870    -0.11020
H43         H  0.28250793  0.22818516  0.26463590     0.08670
H44         H  0.32876729  0.36270545  0.21872543     0.06200
H45         H  0.42108422  0.33096041  0.28273687     0.06040
C46         C  0.29050332  0.36808732  0.09608663     0.03080
C47         C  0.29254494  0.32746843  0.09345922    -0.13070
C48         C  0.32895480  0.32386549  0.10796029     0.00580
C49         C  0.36644038  0.36221379  0.12436123    -0.11600
C50         C  0.36703025  0.40505351  0.12774702     0.03070
C51         C  0.32825481  0.40771115  0.11307264    -0.11020
H52         H  0.26546466  0.29754146  0.07929669     0.08670
H53         H  0.39418849  0.35779584  0.13586061     0.06200
H54         H  0.32734015  0.43986759  0.11498224     0.06040
C55         C  0.22662648  0.05399856  0.44991807     0.03080
C56         C  0.21131651  0.07416489  0.47568877    -0.13070
C57         C  0.18687524  0.04869313  0.50609338     0.00580
C58         C  0.17529857  0.50232306  0.01018533    -0.11600
C59         C  0.18903480  0.48083317  0.98461218     0.03070
C60         C  0.21691237  0.00742803  0.45507493    -0.11020
H61         H  0.21743465  0.10936433  0.47179829     0.08670
H62         H  0.15426032  0.48250642  0.03335359     0.06200
H63         H  0.22988334  0.99201238  0.43610644     0.06040
C64         C  0.04451064  0.14756538  0.15595009     0.03080
C65         C  0.03719573  0.17470745  0.18174839    -0.13070
C66         C  0.05948303  0.22369506  0.17937888     0.00580
C67         C  0.08744987  0.24527749  0.14912593    -0.11600
C68         C  0.08935826  0.22028734  0.11888562     0.03070
C69         C  0.07157324  0.17125571  0.12394860    -0.11020
H70         H  0.51464016  0.15698741  0.20448367     0.08670
H71         H  0.10536666  0.28266244  0.14751255     0.06200
H72         H  0.07880669  0.15237236  0.10344475     0.06040
C73         C  0.09403468  0.46215002  0.15288468     0.03080
C74         C  0.13380496  0.48550247  0.17488898    -0.13070
C75         C  0.17371629  0.48591803  0.16541752     0.00580
C76         C  0.17230800  0.45881336  0.13452950    -0.11600
C77         C  0.13198543  0.42934727  0.11523199     0.03070
C78         C  0.09243327  0.43174533  0.12413180    -0.11020
H79         H  0.13245854  0.50170979  0.20049143     0.08670
H80         H  0.20291619  0.45994009  0.12556553     0.06200
H81         H  0.06087284  0.41033608  0.10896284     0.06040
O82         O  0.10612308  0.28609814  0.07604468    -0.85400
O83         O  0.09484861  0.36658646  0.07164113    -0.82440
C84         C  0.13239668  0.39694589  0.08601765     0.98060
O85         O  0.17081783  0.40022739  0.07486281    -0.82480
O86         O  0.25481108  0.40583639  0.06348797    -0.85120
C87         C  0.25062510  0.36749249  0.07605135     1.02590
O88         O  0.21434439  0.32704212  0.06734212    -0.77880
O89         O  0.13444840  0.23806866  0.06328616    -0.78070
C90         C  0.11060954  0.24871134  0.08388474     1.02540
O91         O  0.06951601  0.31070841  0.00626929    -0.85250
O92         O  0.13951493  0.40403069  0.00576888    -0.82460
C93         C  0.17918400  0.43364869  0.99510317     0.98080
O94         O  0.21197724  0.42607040  0.00099122    -0.82490
O95         O  0.23396906  0.35427494  0.99776286    -0.85090
C96         C  0.22488009  0.31367803  0.98635261     1.02560
O97         O  0.18748270  0.27888869  0.99526317    -0.77910
O98         O  0.09008711  0.25654463  0.00254791    -0.78060
C99         C  0.06059548  0.27060260  0.99637769     1.02520
Cr100      Cr  0.12338257  0.34636407  0.03853482     1.93740
Cr101      Cr  0.20164411  0.37443946  0.03465636     1.93210
Cr102      Cr  0.15114561  0.29133018  0.03300036     1.39100
O103        O  0.15621271  0.33763730  0.01228344    -1.23150
C104        C  0.44124736  0.19419926  0.45072975     0.03080
C105        C  0.42722708  0.15936171  0.47872761    -0.13070
C106        C  0.95271380  0.16636006  0.51245828     0.00580
C107        C  0.99202014  0.20784058  0.01847861    -0.11600
C108        C  0.01237736  0.23695179  0.98834295     0.03070
C109        C  0.98522191  0.23359440  0.45549225    -0.11020
H110        H  0.39710864  0.12642404  0.47416464     0.08670
H111        H  0.01169334  0.21215166  0.04466234     0.06200
H112        H  0.99837417  0.26040166  0.43425027     0.06040
C113        C  0.11256212  0.01430540  0.28559110     0.03080
C114        C  0.11119372  0.97526978  0.30413723    -0.13070
C115        C  0.14495590  0.98151856  0.33151032     0.00580
C116        C  0.17977074  0.02575823  0.33860417    -0.11600
C117        C  0.18623535  0.06301206  0.31640019     0.03070
C118        C  0.15057059  0.05870322  0.29225918    -0.11020
H119        H  0.08441705  0.44093116  0.29730159     0.08670
H120        H  0.20393825  0.03084262  0.36141260     0.06200
H121        H  0.15313658  0.08909836  0.27784007     0.06040
C122        C  0.45733094  0.08790529  0.28435167     0.03080
C123        C  0.41620519  0.08994768  0.28802613    -0.13070
C124        C  0.41139437  0.11337225  0.31968386     0.00580
C125        C  0.44447535  0.12874753  0.34815513    -0.11600
C126        C  0.48603177  0.13251354  0.34281880     0.03070
C127        C  0.49241641  0.11099726  0.31173210    -0.11020
H128        H  0.38917855  0.07422412  0.26684176     0.08670
H129        H  0.44011273  0.14333574  0.37373444     0.06200
H130        H  0.52497885  0.11309651  0.30864209     0.06040
O131        O  0.24287993  0.11322825  0.40410648    -0.85400
O132        O  0.26824947  0.20614524  0.39307629    -0.82440
C133        C  0.30284908  0.24369244  0.40161650     0.98060
O134        O  0.34181071  0.25116020  0.39067042    -0.82480
O135        O  0.40852439  0.22176892  0.40133709    -0.85120
C136        C  0.40895874  0.18725822  0.41785693     1.02590
O137        O  0.37925897  0.14581336  0.40782014    -0.77880
O138        O  0.28698217  0.08089885  0.40812806    -0.78070
C139        C  0.25303454  0.08338825  0.41882986     1.02540
O140        O  0.22557720  0.14157687  0.33376441    -0.85400
O141        O  0.31336377  0.21306403  0.32170981    -0.82460
C142        C  0.35258732  0.24576884  0.30964693     0.98080
O143        O  0.38988226  0.25471629  0.32709478    -0.82490
O144        O  0.38059838  0.16396903  0.33401171    -0.85090
C145        C  0.37307417  0.12082718  0.32953633     1.02560
O146        O  0.33948672  0.08656723  0.34433177    -0.77910
O147        O  0.26445288  0.10104495  0.33430585    -0.78060
C148        C  0.22832781  0.10556635  0.32566487     1.02520
Cr149      Cr  0.27754102  0.16137521  0.36415554     1.93740
Cr150      Cr  0.35902966  0.20810122  0.36284866     1.93210
Cr151      Cr  0.32478861  0.12600022  0.37036951     1.39100
O152        O  0.32150652  0.16835810  0.38848703    -1.23150
O153        O  0.40807881  0.43089350  0.22639335    -0.85400
O154        O  0.43275752  0.02725230  0.23732945    -0.82440
C155        C  0.96550795  0.06205140  0.25358684     0.98060
O156        O  0.00637219  0.07348956  0.24503626    -0.82480
O157        O  0.07307158  0.04528403  0.24943013    -0.85120
C158        C  0.07584419  0.00938945  0.25849870     1.02590
O159        O  0.04785793  0.47013882  0.24354276    -0.77880
O160        O  0.45615405  0.40342602  0.23216045    -0.78070
C161        C  0.41688673  0.39783449  0.23559328     1.02540
O162        O  0.40152611  0.47749053  0.16310574    -0.85400
O163        O  0.49069841  0.06410899  0.17296778    -0.82460
C164        C  0.03300725  0.09918374  0.17008142     0.98080
O165        O  0.06600024  0.09579530  0.18535691    -0.82490
O166        O  0.05814224  0.00578230  0.17600119    -0.85090
C167        C  0.05400381  0.46507859  0.16604183     1.02560
O168        O  0.01881990  0.42702847  0.17336720    -0.77910
O169        O  0.44054282  0.43761228  0.16206540    -0.78060
C170        C  0.40541677  0.44305500  0.15099876     1.02520
Cr171      Cr  0.44904033  0.49405261  0.19979929     1.93740
Cr172      Cr  0.02911639  0.04002769  0.20965695     1.93210
Cr173      Cr  0.49712678  0.45745304  0.20318549     1.39100
O174        O  0.48871800  0.49385758  0.22669288    -1.23150
C175        C  0.29327087  0.19831612  0.12612575    -0.20360
C176        C  0.32530473  0.19408975  0.10533162    -0.06920
C177        C  0.34940636  0.22772756  0.07795711     0.13950
C178        C  0.35098632  0.27061457  0.07988670    -0.20410
C179        C  0.32554886  0.27812093  0.10614837    -0.06930
C180        C  0.29341956  0.24055036  0.12721360     0.13940
C181        C  0.26154807  0.24562682  0.15273092    -0.23760
H182        H  0.27328448  0.17133829  0.14603235     0.15220
H183        H  0.37272448  0.29856414  0.06184037     0.15250
C184        C  0.37698101  0.21999392  0.04964891    -0.23710
H185        H  0.24218047  0.21400359  0.16990061     0.05460
H186        H  0.23695302  0.25198371  0.13565809     0.08690
H187        H  0.28075560  0.27502290  0.17223451     0.08690
H188        H  0.36624545  0.22456133  0.02055527     0.08670
H189        H  0.37171500  0.18425144  0.05135755     0.08670
H190        H  0.41326490  0.24473652  0.05456628     0.05450
C191        C  0.47062289  0.21443627  0.22430571    -0.20360
C192        C  0.45633263  0.22371203  0.18847568    -0.06920
C193        C  0.48969742  0.26040079  0.16632325     0.13950
C194        C  0.53437458  0.28046453  0.17982877    -0.20410
C195        C  0.54588984  0.25222724  0.20233465    -0.06930
C196        C  0.51665081  0.22967526  0.23158485     0.13940
C197        C  0.53348153  0.21510334  0.26615680    -0.23760
H198        H  0.44650178  0.19208851  0.24462884     0.15220
H199        H  0.56011797  0.30835898  0.16382826     0.15250
C200        C  0.48211268  0.27448305  0.12677017    -0.23710
H201        H  0.50486224  0.19100021  0.28288344     0.05460
H202        H  0.05623482  0.24600912  0.28323349     0.08690
H203        H  0.05256362  0.19718968  0.25872752     0.08690
H204        H  0.46371301  0.24360307  0.10838829     0.08670
H205        H  0.51434677  0.29680804  0.11273601     0.08670
H206        H  0.46460456  0.29533402  0.12766060     0.05450
C207        C  0.25035066  0.99990638  0.18612990    -0.20360
C208        C  0.21784684  0.01510577  0.18607589    -0.06920
C209        C  0.23211250  0.06099653  0.19891003     0.13950
C210        C  0.27805944  0.09034491  0.20603305    -0.20410
C211        C  0.30953119  0.07844172  0.19315208    -0.06930
C212        C  0.29631693  0.03189247  0.18678448     0.13940
C213        C  0.32958588  0.01637886  0.17685987    -0.23760
H214        H  0.24020769  0.46405334  0.18027265     0.15220
H215        H  0.28960993  0.12630497  0.21294443     0.15250
C216        C  0.20170745  0.08224050  0.20170068    -0.23710
H217        H  0.32193011  0.00218211  0.14765811     0.05460
H218        H  0.32723460  0.98911554  0.19700744     0.08690
H219        H  0.36472939  0.04524567  0.17833123     0.08690
H220        H  0.17906780  0.06621160  0.22525347     0.08670
H221        H  0.18190226  0.07825521  0.17508679     0.08670
H222        H  0.22074213  0.11986213  0.20794104     0.05450
C223        C  0.20361170  0.26444989  0.30837609    -0.20360
C224        C  0.22699467  0.29449291  0.33870914    -0.06920
C225        C  0.27215839  0.32904897  0.33480195     0.13950
C226        C  0.29253455  0.33294987  0.30090932    -0.20410
C227        C  0.27064927  0.30129339  0.27126355    -0.06930
C228        C  0.22518871  0.26723973  0.27458298     0.13940
C229        C  0.19953347  0.23469575  0.24243093    -0.23760
H230        H  0.16823048  0.23966235  0.31078633     0.15220
H231        H  0.32767045  0.35878206  0.29924499     0.15250
C232        C  0.30049653  0.36270338  0.36565281    -0.23710
H233        H  0.16381707  0.21153679  0.24933524     0.05460
H234        H  0.21468233  0.21261892  0.23599450     0.08690
H235        H  0.20011275  0.25493614  0.21676775     0.08690
H236        H  0.28351262  0.35586814  0.39295652     0.08670
H237        H  0.30989480  0.39841329  0.35640605     0.08670
H238        H  0.33202448  0.36080844  0.37059601     0.05450
C239        C  0.19396172  0.45053857  0.35478706    -0.20360
C240        C  0.14984576  0.44435826  0.35172163    -0.06920
C241        C  0.11642782  0.41047433  0.37447676     0.13950
C242        C  0.12712392  0.38076294  0.39627758    -0.20410
C243        C  0.17120961  0.38668603  0.39775537    -0.06930
C244        C  0.20579817  0.42657319  0.38121359     0.13940
C245        C  0.25532010  0.44217087  0.38843610    -0.23760
H246        H  0.22057866  0.97703945  0.33830098     0.15220
H247        H  0.10036764  0.35163798  0.41027070     0.15250
C248        C  0.07000371  0.40539498  0.37602847    -0.23710
H249        H  0.27328910  0.47860444  0.39813769     0.05460
H250        H  0.27076301  0.44070944  0.36176461     0.08690
H251        H  0.26081708  0.42080882  0.41049319     0.08690
H252        H  0.05220287  0.39439465  0.34806638     0.08670
H253        H  0.07241953  0.43878496  0.38429895     0.08670
H254        H  0.04934617  0.37890260  0.39712030     0.05450
C255        C  0.06425495  0.23773763  0.39989486    -0.20360
C256        C  0.09569733  0.22511164  0.41470611    -0.06920
C257        C  0.08552355  0.17839319  0.41216276     0.13950
C258        C  0.04920312  0.14828735  0.38861911    -0.20410
C259        C  0.02307700  0.16421993  0.36814873    -0.06930
C260        C  0.03031605  0.20966981  0.37453461     0.13940
C261        C  0.50639566  0.23250226  0.35331341    -0.23760
H262        H  0.07011407  0.27272519  0.40260300     0.15220
H263        H  0.04200066  0.11277146  0.38548707     0.15250
C264        C  0.11383854  0.16057314  0.43256800    -0.23710
H265        H  0.53161384  0.26456676  0.33937423     0.05460
H266        H  0.48829857  0.24242867  0.37319171     0.08690
H267        H  0.48161543  0.21147234  0.33118313     0.08690
H268        H  0.14066438  0.18750221  0.45089333     0.08670
H269        H  0.12962844  0.14861183  0.41174529     0.08670
H270        H  0.09226819  0.13095854  0.45080527     0.05450
C271        C  0.42983851  0.39280298  0.03402358    -0.20360
C272        C  0.43296782  0.43634732  0.53918231    -0.06920
C273        C  0.41604325  0.45473880  0.50939699     0.13950
C274        C  0.39395259  0.42749299  0.47804418    -0.20410
C275        C  0.38662131  0.38260326  0.47603767    -0.06930
C276        C  0.40908671  0.36695248  0.50154378     0.13940
C277        C  0.41063064  0.32293762  0.99464262    -0.23760
H278        H  0.44397910  0.37895247  0.05529480     0.15220
H279        H  0.37714590  0.43892212  0.45707558     0.15250
C280        C  0.41966595  0.50211216  0.50864343    -0.23710
H281        H  0.43081239  0.31656024  0.01710580     0.05460
H282        H  0.42675083  0.32548730  0.46731971     0.08690
H283        H  0.37608467  0.29315774  0.99363627     0.08690
H284        H  0.45485152  0.52847254  0.51336153     0.08670
H285        H  0.39723288  0.50467167  0.02923040     0.08670
H286        H  0.40919791  0.51049410  0.48066546     0.05450
C287        C  0.45240159  0.08758924  0.09041419    -0.20360
C288        C  0.98930202  0.08274285  0.57941991    -0.06920
C289        C  0.01091006  0.10455792  0.54530309     0.13950
C290        C  0.98958371  0.12119945  0.52047263    -0.20410
C291        C  0.95438042  0.12788932  0.53202043    -0.06930
C292        C  0.43607174  0.11187170  0.06769868     0.13940
C293        C  0.39966421  0.12028589  0.08161254    -0.23760
H294        H  0.43558061  0.07109195  0.11624760     0.15220
H295        H  0.00497743  0.13580261  0.49358715     0.15250
C296        C  0.05614651  0.11285377  0.53253879    -0.23710
H297        H  0.38739047  0.10260403  0.10906505     0.05460
H298        H  0.37082788  0.10692887  0.56076639     0.08690
H299        H  0.41335125  0.15791456  0.08579147     0.08690
H300        H  0.07567880  0.10343034  0.55256773     0.08670
H301        H  0.07772091  0.15046971  0.52746085     0.08670
H302        H  0.05190861  0.09509979  0.50526932     0.05450
C303        C  0.11989577  0.55221668  0.50773738    -0.20360
C304        C  0.16046655  0.06359082  0.52677130    -0.06920
C305        C  0.16345668  0.06370135  0.06652249     0.13950
C306        C  0.12384450  0.04627410  0.08653802    -0.20410
C307        C  0.08199840  0.02510547  0.56687323    -0.06930
C308        C  0.08013233  0.52811375  0.52658315     0.13940
C309        C  0.03720064  0.50555618  0.50246169    -0.23760
H310        H  0.11878627  0.55309729  0.47695495     0.15220
H311        H  0.12537662  0.04729026  0.11718856     0.15250
C312        C  0.20821980  0.07917704  0.08679764    -0.23710
H313        H  0.04296921  0.51513660  0.47206151     0.05460
H314        H  0.01336941  0.01652076  0.51194752     0.08690
H315        H  0.02197149  0.46741550  0.50400293     0.08690
H316        H  0.23162461  0.11554995  0.07905194     0.08670
H317        H  0.22280594  0.55702017  0.07876835     0.08670
H318        H  0.20515622  0.07704039  0.11784050     0.05450
C319        C  0.04088033  0.00938990  0.58795709     0.03080
C320        C  0.03390427  0.04458404  0.10138979    -0.13070
C321        C  0.99228952  0.04227748  0.09434443     0.00580
C322        C  0.45515474  0.49955153  0.08574827    -0.11600
C323        C  0.46188463  0.46459970  0.57143140     0.03070
C324        C  0.50405239  0.46703705  0.57792355    -0.11020
H325        H  0.06284313  0.07729720  0.10866397     0.08670
H326        H  0.42212091  0.49656886  0.08308177     0.06200
H327        H  0.51108775  0.44144299  0.56587332     0.06040
C328        C  0.20148821  0.29727977  0.87000996     0.03080
C329        C  0.17163674  0.25892130  0.89036300    -0.13070
C330        C  0.14275544  0.26315574  0.91561476     0.00580
C331        C  0.15075227  0.30793453  0.92514352    -0.11600
C332        C  0.17736819  0.34538641  0.90196488     0.03070
C333        C  0.20119003  0.33856216  0.87385943    -0.11020
H334        H  0.16681258  0.22540094  0.88224829     0.08670
H335        H  0.12901101  0.31168594  0.94455982     0.06200
H336        H  0.21730747  0.36434474  0.85214929     0.06040
C337        C  0.34936518  0.17427984  0.62704829     0.03080
C338        C  0.32785852  0.12824063  0.63794130    -0.13070
C339        C  0.34406616  0.11464373  0.67018332     0.00580
C340        C  0.38666922  0.14453514  0.68601664    -0.11600
C341        C  0.41029938  0.19082058  0.67332246     0.03070
C342        C  0.38867267  0.20550589  0.64657218    -0.11020
H343        H  0.29454025  0.10536021  0.62605856     0.08670
H344        H  0.39944855  0.13211480  0.70939848     0.06200
H345        H  0.40015859  0.24184743  0.64279392     0.06040
C346        C  0.29939827  0.27876176  0.92536203     0.03080
C347        C  0.34036847  0.31792746  0.93345375    -0.13070
C348        C  0.34333514  0.34942207  0.95955016     0.00580
C349        C  0.30496058  0.34615461  0.47508905    -0.11600
C350        C  0.26194486  0.31004138  0.46634667     0.03070
C351        C  0.25924472  0.27398301  0.94241454    -0.11020
H352        H  0.37130139  0.32303576  0.92141131     0.08670
H353        H  0.30955299  0.37153897  0.49626267     0.06200
H354        H  0.22733323  0.24318133  0.93741199     0.06040
C355        C  0.35219092  0.27485476  0.77671575     0.03080
C356        C  0.31058127  0.26164138  0.75810829    -0.13070
C357        C  0.30088412  0.29618423  0.74541177     0.00580
C358        C  0.33643277  0.33749902  0.73231650    -0.11600
C359        C  0.38049072  0.35109128  0.74587681     0.03070
C360        C  0.38828368  0.31971300  0.76915849    -0.11020
H361        H  0.28250806  0.22818522  0.76463562     0.08670
H362        H  0.32876740  0.36270558  0.71872531     0.06200
H363        H  0.42108433  0.33096048  0.78273667     0.06040
C364        C  0.29050393  0.36808766  0.59608622     0.03080
C365        C  0.29254572  0.32746888  0.59345856    -0.13070
C366        C  0.32895569  0.32386603  0.60795949     0.00580
C367        C  0.36644124  0.36221433  0.62436046    -0.11600
C368        C  0.36703096  0.40505395  0.62774646     0.03070
C369        C  0.32825540  0.40771149  0.61307226    -0.11020
H370        H  0.26546545  0.29754192  0.57929602     0.08670
H371        H  0.39418941  0.35779643  0.63585975     0.06200
H372        H  0.32734061  0.43986784  0.61498204     0.06040
C373        C  0.22662587  0.05399853  0.94991774     0.03080
C374        C  0.21131528  0.07416460  0.97568814    -0.13070
C375        C  0.18687369  0.04869264  0.00609254     0.00580
C376        C  0.17529906  0.50232335  0.51018554    -0.11600
C377        C  0.18903504  0.48083340  0.48461224     0.03070
C378        C  0.21691200  0.00742811  0.95507469    -0.11020
H379        H  0.21743334  0.10936400  0.97179768     0.08670
H380        H  0.15426092  0.48250673  0.53335386     0.06200
H381        H  0.22988357  0.99201264  0.93610639     0.06040
C382        C  0.04451101  0.14756560  0.65594999     0.03080
C383        C  0.03719630  0.17470772  0.68174837    -0.13070
C384        C  0.05948362  0.22369532  0.67937885     0.00580
C385        C  0.08745037  0.24527771  0.64912584    -0.11600
C386        C  0.08935866  0.22028753  0.61888550     0.03070
C387        C  0.07157354  0.17125588  0.62394845    -0.11020
H388        H  0.51464042  0.15698738  0.70448394     0.08670
H389        H  0.10536716  0.28266266  0.64751244     0.06200
H390        H  0.07880684  0.15237247  0.60344454     0.06040
C391        C  0.09403492  0.46214993  0.65288474     0.03080
C392        C  0.13380518  0.48550231  0.67488909    -0.13070
C393        C  0.17371650  0.48591782  0.66541766     0.00580
C394        C  0.17230823  0.45881325  0.63452958    -0.11600
C395        C  0.13198568  0.42934726  0.61523200     0.03070
C396        C  0.09243353  0.43174532  0.62413181    -0.11020
H397        H  0.13245872  0.50170957  0.70049156     0.08670
H398        H  0.20291641  0.45993996  0.62556561     0.06200
H399        H  0.06087312  0.41033613  0.60896280     0.06040
O400        O  0.10612341  0.28609830  0.57604455    -0.85400
O401        O  0.09484887  0.36658655  0.57164105    -0.82440
C402        C  0.13239693  0.39694595  0.58601760     0.98060
O403        O  0.17081810  0.40022748  0.57486276    -0.82480
O404        O  0.25481140  0.40583664  0.56348786    -0.85120
C405        C  0.25062555  0.36749276  0.57605115     1.02590
O406        O  0.21434486  0.32704236  0.56734194    -0.77880
O407        O  0.13444882  0.23806888  0.56328605    -0.78070
C408        C  0.11060992  0.24871152  0.58388461     1.02540
O409        O  0.06951628  0.31070852  0.50626919    -0.85250
O410        O  0.13951517  0.40403086  0.50576883    -0.82460
C411        C  0.17918423  0.43364890  0.49510315     0.98080
O412        O  0.21197749  0.42607063  0.50099119    -0.82490
O413        O  0.23396942  0.35427527  0.49776272    -0.85090
C414        C  0.22488047  0.31367837  0.48635246     1.02560
O415        O  0.18748310  0.27888900  0.49526301    -0.77910
O416        O  0.09008747  0.25654480  0.50254783    -0.78060
C417        C  0.06059578  0.27060270  0.49637761     1.02520
Cr418      Cr  0.12338286  0.34636422  0.53853472     1.93740
Cr419      Cr  0.20164442  0.37443967  0.53465627     1.93210
Cr420      Cr  0.15114600  0.29133040  0.53300025     1.39100
O421        O  0.15621303  0.33763751  0.51228334    -1.23150
C422        C  0.44124702  0.19419920  0.95072978     0.03080
C423        C  0.42722662  0.15936182  0.97872779    -0.13070
C424        C  0.95271334  0.16636019  0.01245839     0.00580
C425        C  0.99202057  0.20784048  0.51847850    -0.11600
C426        C  0.01237766  0.23695181  0.48834289     0.03070
C427        C  0.98522172  0.23359437  0.95549224    -0.11020
H428        H  0.39710810  0.12642420  0.97416492     0.08670
H429        H  0.01169383  0.21215153  0.54466218     0.06200
H430        H  0.99837409  0.26040158  0.93425023     0.06040
C431        C  0.11256186  0.01430543  0.78559126     0.03080
C432        C  0.11119334  0.97526982  0.80413751    -0.13070
C433        C  0.14495547  0.98151858  0.83151066     0.00580
C434        C  0.17977040  0.02575825  0.83860440    -0.11600
C435        C  0.18623510  0.06301203  0.81640030     0.03070
C436        C  0.15057036  0.05870321  0.79225930    -0.11020
H437        H  0.08441708  0.44093070  0.79730182     0.08670
H438        H  0.20393791  0.03084268  0.86141282     0.06200
H439        H  0.15313643  0.08909834  0.77784009     0.06040
C440        C  0.45733071  0.08790507  0.78435177     0.03080
C441        C  0.41620498  0.08994751  0.78802619    -0.13070
C442        C  0.41139414  0.11337211  0.81968390     0.00580
C443        C  0.44447510  0.12874738  0.84815519    -0.11600
C444        C  0.48603152  0.13251337  0.84281889     0.03070
C445        C  0.49241617  0.11099704  0.81173222    -0.11020
H446        H  0.38917836  0.07422397  0.76684180     0.08670
H447        H  0.44011248  0.14333562  0.87373449     0.06200
H448        H  0.52497861  0.11309629  0.80864224     0.06040
O449        O  0.24287971  0.11322839  0.90410628    -0.85400
O450        O  0.26824930  0.20614530  0.89307609    -0.82440
C451        C  0.30284890  0.24369243  0.90161644     0.98060
O452        O  0.34181055  0.25116023  0.89067036    -0.82480
O453        O  0.40852417  0.22176887  0.90133706    -0.85120
C454        C  0.40895846  0.18725816  0.91785693     1.02590
O455        O  0.37925869  0.14581331  0.90782014    -0.77880
O456        O  0.28698188  0.08089891  0.90812805    -0.78070
C457        C  0.25303423  0.08338837  0.91882973     1.02540
O458        O  0.22557711  0.14157695  0.83376418    -0.85400
O459        O  0.31336374  0.21306413  0.82170965    -0.82460
C460        C  0.35258732  0.24576893  0.80964681     0.98080
O461        O  0.38988221  0.25471634  0.82709473    -0.82490
O462        O  0.38059819  0.16396897  0.83401168    -0.85090
C463        C  0.37307396  0.12082710  0.82953634     1.02560
O464        O  0.33948649  0.08656717  0.84433180    -0.77910
O465        O  0.26445267  0.10104488  0.83430582    -0.78060
C466        C  0.22832763  0.10556633  0.82566481     1.02520
Cr467      Cr  0.27754090  0.16137530  0.86415536     1.93740
Cr468      Cr  0.35902951  0.20810123  0.86284858     1.93210
Cr469      Cr  0.32478839  0.12600020  0.87036948     1.39100
O470        O  0.32150632  0.16835814  0.88848692    -1.23150
O471        O  0.40807900  0.43089356  0.72639298    -0.85400
O472        O  0.43275738  0.02725208  0.73732954    -0.82440
C473        C  0.96550801  0.06205168  0.75358667     0.98060
O474        O  0.00637226  0.07348983  0.74503613    -0.82480
O475        O  0.07307151  0.04528416  0.74943019    -0.85120
C476        C  0.07584404  0.00938954  0.75849878     1.02590
O477        O  0.04785792  0.47013835  0.74354287    -0.77880
O478        O  0.45615423  0.40342609  0.73216018    -0.78070
C479        C  0.41688690  0.39783455  0.73559296     1.02540
O480        O  0.40152659  0.47749078  0.66310537    -0.85400
O481        O  0.49069841  0.06410883  0.67296794    -0.82460
C482        C  0.03300753  0.09918395  0.67008131     0.98080
O483        O  0.06600047  0.09579548  0.68535690    -0.82490
O484        O  0.05814243  0.00578252  0.67600129    -0.85090
C485        C  0.05400402  0.46507842  0.66604190     1.02560
O486        O  0.01882012  0.42702825  0.67336721    -0.77910
O487        O  0.44054340  0.43761261  0.66206507    -0.78060
C488        C  0.40541739  0.44305535  0.65099834     1.02520
Cr489      Cr  0.44904062  0.49405273  0.69979906     1.93740
Cr490      Cr  0.02911650  0.04002792  0.70965691     1.93210
Cr491      Cr  0.49712715  0.45745325  0.70318540     1.39100
O492        O  0.48871818  0.49385767  0.72669275    -1.23150
C493        C  0.29327191  0.19831675  0.62612507    -0.20360
C494        C  0.32530579  0.19409037  0.60533097    -0.06920
C495        C  0.34940752  0.22772821  0.57795650     0.13950
C496        C  0.35098739  0.27061519  0.57988602    -0.20410
C497        C  0.32554981  0.27812151  0.60614759    -0.06930
C498        C  0.29342058  0.24055097  0.62721289     0.13940
C499        C  0.26154921  0.24562748  0.65273033    -0.23760
H500        H  0.27328553  0.17133894  0.64603169     0.15220
H501        H  0.37272561  0.29856479  0.56183974     0.15250
C502        C  0.37698235  0.21999466  0.54964843    -0.23710
H503        H  0.24218168  0.21400429  0.66990008     0.05460
H504        H  0.23695409  0.25198436  0.63565760     0.08690
H505        H  0.28075684  0.27502358  0.67223389     0.08690
H506        H  0.36624693  0.22456208  0.52055474     0.08670
H507        H  0.37171638  0.18425219  0.55135708     0.08670
H508        H  0.41326621  0.24473728  0.55456593     0.05450
C509        C  0.47062316  0.21443621  0.72430554    -0.20360
C510        C  0.45633320  0.22371205  0.68847540    -0.06920
C511        C  0.48969818  0.26040085  0.66632313     0.13950
C512        C  0.53437521  0.28046466  0.67982901    -0.20410
C513        C  0.54589030  0.25222727  0.70233494    -0.06930
C514        C  0.51665104  0.22967524  0.73158498     0.13940
C515        C  0.53348149  0.21510319  0.76615701    -0.23760
H516        H  0.44650187  0.19208839  0.74462853     0.15220
H517        H  0.56011875  0.30835921  0.66382867     0.15250
C518        C  0.48211383  0.27448298  0.62676989    -0.23710
H519        H  0.50486205  0.19099999  0.78288348     0.05460
H520        H  0.05623541  0.24600952  0.78323354     0.08690
H521        H  0.05256440  0.19719012  0.75872762     0.08690
H522        H  0.46371425  0.24360294  0.60838806     0.08670
H523        H  0.51434808  0.29680783  0.61273590     0.08670
H524        H  0.46460578  0.29533405  0.62765998     0.05450
C525        C  0.25035098  0.99990661  0.68612973    -0.20360
C526        C  0.21784713  0.01510595  0.68607589    -0.06920
C527        C  0.23211288  0.06099679  0.69890987     0.13950
C528        C  0.27805989  0.09034534  0.70603233    -0.20410
C529        C  0.30953153  0.07844203  0.69315131    -0.06930
C530        C  0.29631724  0.03189273  0.68678390     0.13940
C531        C  0.32958607  0.01637905  0.67685910    -0.23760
H532        H  0.24020774  0.46405289  0.68027276     0.15220
H533        H  0.28961041  0.12630545  0.71294354     0.15250
C534        C  0.20170775  0.08224057  0.70170110    -0.23710
H535        H  0.32192999  0.00218207  0.64765741     0.05460
H536        H  0.32723500  0.98911587  0.69700675     0.08690
H537        H  0.36472959  0.04524585  0.67833017     0.08690
H538        H  0.17906848  0.06621148  0.72525409     0.08670
H539        H  0.18190216  0.07825527  0.67508745     0.08670
H540        H  0.22074239  0.11986218  0.70794153     0.05450
C541        C  0.20361170  0.26444975  0.80837582    -0.20360
C542        C  0.22699462  0.29449262  0.83870896    -0.06920
C543        C  0.27215838  0.32904866  0.83480187     0.13950
C544        C  0.29253460  0.33294970  0.80090925    -0.20410
C545        C  0.27064935  0.30129338  0.77126337    -0.06930
C546        C  0.22518877  0.26723972  0.77458271     0.13940
C547        C  0.19953360  0.23469587  0.74243057    -0.23760
H548        H  0.16823046  0.23966221  0.81078598     0.15220
H549        H  0.32767052  0.35878187  0.79924498     0.15250
C550        C  0.30049650  0.36270289  0.86565284    -0.23710
H551        H  0.16381719  0.21153687  0.74933482     0.05460
H552        H  0.21468249  0.21261910  0.73599406     0.08690
H553        H  0.20011292  0.25493637  0.71676745     0.08690
H554        H  0.28351253  0.35586756  0.89295654     0.08670
H555        H  0.30989487  0.39841286  0.85640620     0.08670
H556        H  0.33202439  0.36080784  0.87059604     0.05450
C557        C  0.19396185  0.45053828  0.85478737    -0.20360
C558        C  0.14984587  0.44435793  0.85172188    -0.06920
C559        C  0.11642791  0.41047397  0.87447699     0.13950
C560        C  0.12712402  0.38076257  0.89627780    -0.20410
C561        C  0.17120970  0.38668566  0.89775558    -0.06930
C562        C  0.20579828  0.42657285  0.88121387     0.13940
C563        C  0.25532020  0.44217049  0.88843639    -0.23760
H564        H  0.22057826  0.97703949  0.83830183     0.15220
H565        H  0.10036773  0.35163760  0.91027090     0.15250
C566        C  0.07000380  0.40539459  0.87602869    -0.23710
H567        H  0.27328920  0.47860404  0.89813805     0.05460
H568        H  0.27076313  0.44070912  0.86176489     0.08690
H569        H  0.26081713  0.42080836  0.91049344     0.08690
H570        H  0.05220296  0.39439424  0.84806660     0.08670
H571        H  0.07241959  0.43878456  0.88429916     0.08670
H572        H  0.04934626  0.37890221  0.89712052     0.05450
C573        C  0.06425488  0.23773728  0.89989505    -0.20360
C574        C  0.09569729  0.22511124  0.91470616    -0.06920
C575        C  0.08552346  0.17839278  0.91216273     0.13950
C576        C  0.04920298  0.14828701  0.88861909    -0.20410
C577        C  0.02307690  0.16421969  0.86814878    -0.06930
C578        C  0.03031601  0.20966957  0.87453473     0.13940
C579        C  0.50639538  0.23250209  0.85331338    -0.23760
H580        H  0.07011404  0.27272484  0.90260327     0.15220
H581        H  0.04200047  0.11277111  0.88548699     0.15250
C582        C  0.11383847  0.16057267  0.93256785    -0.23710
H583        H  0.53161352  0.26456662  0.83937420     0.05460
H584        H  0.48829825  0.24242847  0.87319166     0.08690
H585        H  0.48161517  0.21147215  0.83118309     0.08690
H586        H  0.14066437  0.18750171  0.95089316     0.08670
H587        H  0.12962830  0.14861137  0.91174506     0.08670
H588        H  0.09226816  0.13095805  0.95080512     0.05450
C589        C  0.42984009  0.39280362  0.53402246    -0.20360
C590        C  0.43296609  0.43634663  0.03918334    -0.06920
C591        C  0.41604168  0.45473807  0.00939786     0.13950
C592        C  0.39395189  0.42749253  0.97804471    -0.20410
C593        C  0.38662086  0.38260289  0.97603819    -0.06930
C594        C  0.40908586  0.36695206  0.00154466     0.13940
C595        C  0.41063112  0.32293786  0.49464168    -0.23760
H596        H  0.44398093  0.37895316  0.55529349     0.15220
H597        H  0.37714543  0.43892164  0.95707588     0.15250
C598        C  0.41966357  0.50211109  0.00864448    -0.23710
H599        H  0.43081311  0.31656048  0.51710464     0.05460
H600        H  0.42675079  0.32548735  0.96732083     0.08690
H601        H  0.37608508  0.29315809  0.49363571     0.08690
H602        H  0.45484895  0.52847184  0.01336279     0.08670
H603        H  0.39723569  0.50467344  0.52922940     0.08670
H604        H  0.40919550  0.51049303  0.98066652     0.05450
C605        C  0.45240191  0.08758919  0.59041411    -0.20360
C606        C  0.98930150  0.08274297  0.07942007    -0.06920
C607        C  0.01090955  0.10455803  0.04530324     0.13950
C608        C  0.98958318  0.12119952  0.02047277    -0.20410
C609        C  0.95437992  0.12788945  0.03202056    -0.06930
C610        C  0.43607202  0.11187148  0.56769844     0.13940
C611        C  0.39966435  0.12028554  0.58161213    -0.23760
H612        H  0.43558090  0.07109197  0.61624752     0.15220
H613        H  0.00497690  0.13580267  0.99358727     0.15250
C614        C  0.05614609  0.11285408  0.03253900    -0.23710
H615        H  0.38739041  0.10260353  0.60906455     0.05460
H616        H  0.37082761  0.10692914  0.06076694     0.08690
H617        H  0.41335134  0.15791419  0.58579116     0.08690
H618        H  0.07567833  0.10343052  0.05256788     0.08670
H619        H  0.07772045  0.15047006  0.02746126     0.08670
H620        H  0.05190836  0.09510036  0.00526943     0.05450
C621        C  0.11989527  0.55221635  0.00773724    -0.20360
C622        C  0.16046516  0.06359037  0.02677062    -0.06920
C623        C  0.16345770  0.06370170  0.56652318     0.13950
C624        C  0.12384532  0.04627436  0.58653845    -0.20410
C625        C  0.08199741  0.02510536  0.06687305    -0.06930
C626        C  0.08013188  0.52811357  0.02658311     0.13940
C627        C  0.03720008  0.50555628  0.00246176    -0.23760
H628        H  0.11878568  0.55309689  0.97695481     0.15220
H629        H  0.12537719  0.04729052  0.61718899     0.15250
C630        C  0.20822067  0.07917743  0.58679858    -0.23710
H631        H  0.04296859  0.51513672  0.97206158     0.05460
H632        H  0.01336810  0.01652137  0.01194794     0.08690
H633        H  0.02197069  0.46741557  0.00400294     0.08690
H634        H  0.23162551  0.11555033  0.57905291     0.08670
H635        H  0.22280615  0.55702017  0.57876869     0.08670
H636        H  0.20515685  0.07704079  0.61784142     0.05450
C637        C  0.04086805  0.50937967  0.08795142     0.03080
C638        C  0.03389198  0.54457144  0.60138920    -0.13070
C639        C  0.99227853  0.54226750  0.59434206     0.00580
C640        C  0.45516582  0.99955927  0.58575838    -0.11600
C641        C  0.46189279  0.96460481  0.07144497     0.03070
C642        C  0.50406183  0.96704436  0.07793492    -0.11020
H643        H  0.06283034  0.57728313  0.60866804     0.08670
H644        H  0.42213135  0.99657518  0.58309447     0.06200
H645        H  0.51109652  0.94144872  0.06588696     0.06040
C646        C  0.20149630  0.79728028  0.37002671     0.03080
C647        C  0.17163890  0.75892224  0.39037653    -0.13070
C648        C  0.14275361  0.76315819  0.41562267     0.00580
C649        C  0.15075156  0.80793775  0.42515029    -0.11600
C650        C  0.17737342  0.84538973  0.40197380     0.03070
C651        C  0.20120041  0.83856402  0.37387381    -0.11020
H652        H  0.16681338  0.72540130  0.38226204     0.08670
H653        H  0.12900707  0.81168996  0.44456238     0.06200
H654        H  0.21732123  0.86434505  0.35216349     0.06040
C655        C  0.34934600  0.67426551  0.12703496     0.03080
C656        C  0.32784072  0.62822684  0.13792992    -0.13070
C657        C  0.34405537  0.61463103  0.17016836     0.00580
C658        C  0.38666140  0.64452258  0.18599556    -0.11600
C659        C  0.41028811  0.69080726  0.17330014     0.03070
C660        C  0.38865839  0.70549183  0.14655265    -0.11020
H661        H  0.29451958  0.60534658  0.12605268     0.08670
H662        H  0.39944544  0.63210395  0.20937536     0.06200
H663        H  0.40014632  0.74183379  0.14277295     0.06040
C664        C  0.29940517  0.77875949  0.42537340     0.03080
C665        C  0.34037679  0.81792001  0.43347324    -0.13070
C666        C  0.34334207  0.84941184  0.45957195     0.00580
C667        C  0.30496579  0.84614478  0.97510765    -0.11600
C668        C  0.26194983  0.81003719  0.96635709     0.03070
C669        C  0.25925034  0.77398178  0.44242223    -0.11020
H670        H  0.37131056  0.82302741  0.42143320     0.08670
H671        H  0.30955626  0.87152632  0.99628334     0.06200
H672        H  0.22733782  0.74318342  0.43741373     0.06040
C673        C  0.35219247  0.77485533  0.27671810     0.03080
C674        C  0.31058250  0.76164320  0.25811197    -0.13070
C675        C  0.30088484  0.79618762  0.24542157     0.00580
C676        C  0.33643247  0.83750337  0.23232663    -0.11600
C677        C  0.38049181  0.85109295  0.24588153     0.03070
C678        C  0.38828560  0.81971320  0.26916047    -0.11020
H679        H  0.28250956  0.72818641  0.26463826     0.08670
H680        H  0.32876639  0.86271137  0.21873926     0.06200
H681        H  0.42108713  0.83095927  0.28273643     0.06040
C682        C  0.29050311  0.86808624  0.09608913     0.03080
C683        C  0.29254309  0.82746642  0.09346233    -0.13070
C684        C  0.32895261  0.82386233  0.10796251     0.00580
C685        C  0.36643899  0.86221023  0.12436344    -0.11600
C686        C  0.36702999  0.90505081  0.12774911     0.03070
C687        C  0.32825522  0.90770960  0.11307474    -0.11020
H688        H  0.26546151  0.79753923  0.07930106     0.08670
H689        H  0.39418671  0.85779155  0.13586269     0.06200
H690        H  0.32734145  0.93986660  0.11498423     0.06040
C691        C  0.22662735  0.55400100  0.44992165     0.03080
C692        C  0.21131546  0.57416617  0.47569188    -0.13070
C693        C  0.18687177  0.54869287  0.50609514     0.00580
C694        C  0.17530118  0.00232329  0.01018402    -0.11600
C695        C  0.18903612  0.98083234  0.98461072     0.03070
C696        C  0.21691272  0.50743021  0.45507748    -0.11020
H697        H  0.21743361  0.60936568  0.47180184     0.08670
H698        H  0.15426445  0.98250778  0.03335336     0.06200
H699        H  0.22988458  0.49201550  0.43610954     0.06040
C700        C  0.04450937  0.64756493  0.15594817     0.03080
C701        C  0.03719020  0.67470653  0.18174385    -0.13070
C702        C  0.05947826  0.72369426  0.17937458     0.00580
C703        C  0.08745172  0.74527700  0.14912579    -0.11600
C704        C  0.08936127  0.72028718  0.11888596     0.03070
C705        C  0.07157545  0.67125538  0.12394864    -0.11020
H706        H  0.51463050  0.65698611  0.20447680     0.08670
H707        H  0.10536953  0.78266208  0.14751345     0.06200
H708        H  0.07881088  0.65237155  0.10344668     0.06040
C709        C  0.09403730  0.96215181  0.15288447     0.03080
C710        C  0.13380852  0.98550726  0.17488719    -0.13070
C711        C  0.17372058  0.98592479  0.16541492     0.00580
C712        C  0.17231221  0.95881872  0.13452780    -0.11600
C713        C  0.13198904  0.92935001  0.11523184     0.03070
C714        C  0.09243624  0.93174642  0.12413242    -0.11020
H715        H  0.13246236  0.00171526  0.20048932     0.08670
H716        H  0.20292068  0.95994632  0.12556353     0.06200
H717        H  0.06087544  0.91033516  0.10896471     0.06040
O718        O  0.10612578  0.78609837  0.07604577    -0.85400
O719        O  0.09485170  0.86658725  0.07164245    -0.82440
C720        C  0.13239992  0.89694755  0.08601814     0.98060
O721        O  0.17082084  0.90022908  0.07486280    -0.82480
O722        O  0.25481325  0.90583675  0.06348894    -0.85120
C723        C  0.25062592  0.86749258  0.07605321     1.02590
O724        O  0.21434492  0.82704248  0.06734404    -0.77880
O725        O  0.13445071  0.73806870  0.06328660    -0.78070
C726        C  0.11061234  0.74871149  0.08388545     1.02540
O727        O  0.06951770  0.81070795  0.00627066    -0.85250
O728        O  0.13951707  0.90403046  0.00576927    -0.82460
C729        C  0.17918590  0.93364823  0.99510281     0.98080
O730        O  0.21197942  0.92607026  0.00099095    -0.82490
O731        O  0.23397239  0.85427445  0.99776484    -0.85090
C732        C  0.22488358  0.81367681  0.98635672     1.02560
O733        O  0.18748521  0.77888824  0.99526602    -0.77910
O734        O  0.09008909  0.75654448  0.00254838    -0.78060
C735        C  0.06059730  0.77060233  0.99637836     1.02520
Cr736      Cr  0.12338499  0.84636419  0.03853576     1.93740
Cr737      Cr  0.20164663  0.87443994  0.03465698     1.93210
Cr738      Cr  0.15114722  0.79133023  0.03300140     1.39100
O739        O  0.15621500  0.83763736  0.01228419    -1.23150
C740        C  0.44124974  0.69419807  0.45072820     0.03080
C741        C  0.42722943  0.65936008  0.47872549    -0.13070
C742        C  0.95271460  0.66635941  0.51245761     0.00580
C743        C  0.99202126  0.70783950  0.01847754    -0.11600
C744        C  0.01237920  0.73695142  0.98834248     0.03070
C745        C  0.98522395  0.73359358  0.45549177    -0.11020
H746        H  0.39711133  0.62642221  0.47416209     0.08670
H747        H  0.01169359  0.71215044  0.04466177     0.06200
H748        H  0.99837656  0.76040074  0.43424977     0.06040
C749        C  0.11255917  0.51430767  0.28559374     0.03080
C750        C  0.11118947  0.47527252  0.30414183    -0.13070
C751        C  0.14494922  0.48152202  0.33151781     0.00580
C752        C  0.17976266  0.52576200  0.33861311    -0.11600
C753        C  0.18623043  0.56301477  0.31640636     0.03070
C754        C  0.15056766  0.55870563  0.29226234    -0.11020
H755        H  0.08442011  0.94092867  0.29729806     0.08670
H756        H  0.20392846  0.53084665  0.36142303     0.06200
H757        H  0.15313561  0.58910026  0.27784084     0.06040
C758        C  0.45732995  0.58790828  0.28434900     0.03080
C759        C  0.41620277  0.58994761  0.28802474    -0.13070
C760        C  0.41139265  0.61337421  0.31968136     0.00580
C761        C  0.44447659  0.62875567  0.34815015    -0.11600
C762        C  0.48603332  0.63252327  0.34281281     0.03070
C763        C  0.49241729  0.61100517  0.31172704    -0.11020
H764        H  0.38917460  0.57422036  0.26684208     0.08670
H765        H  0.44011490  0.64334536  0.37372889     0.06200
H766        H  0.52498017  0.61310566  0.30863647     0.06040
O767        O  0.24288179  0.61323123  0.40411040    -0.85400
O768        O  0.26825343  0.70614786  0.39308058    -0.82440
C769        C  0.30285398  0.74369350  0.40162242     0.98060
O770        O  0.34181485  0.75116143  0.39067445    -0.82480
O771        O  0.40852645  0.72176847  0.40133688    -0.85120
C772        C  0.40896058  0.68725747  0.41785603     1.02590
O773        O  0.37925992  0.64581279  0.40781941    -0.77880
O774        O  0.28698257  0.58090000  0.40813075    -0.78070
C775        C  0.25303599  0.58339087  0.41883363     1.02540
O776        O  0.22557730  0.64158019  0.33376876    -0.85400
O777        O  0.31336488  0.71306543  0.32171237    -0.82460
C778        C  0.35258861  0.74576968  0.30964917     0.98080
O779        O  0.38988353  0.75471701  0.32709685    -0.82490
O780        O  0.38059603  0.66396899  0.33401123    -0.85090
C781        C  0.37307174  0.62082729  0.32953519     1.02560
O782        O  0.33948481  0.58656697  0.34433119    -0.77910
O783        O  0.26444922  0.60104453  0.33430964    -0.78060
C784        C  0.22832504  0.60556801  0.32566946     1.02520
Cr785      Cr  0.27754222  0.66137718  0.36415852     1.93740
Cr786      Cr  0.35903061  0.70810193  0.36285030     1.93210
Cr787      Cr  0.32478775  0.62600002  0.37037065     1.39100
O788        O  0.32150784  0.66835879  0.38848887    -1.23150
O789        O  0.40808077  0.93089407  0.22639514    -0.85400
O790        O  0.43275610  0.52725297  0.23732854    -0.82440
C791        C  0.96550667  0.56205288  0.25358507     0.98060
O792        O  0.00637084  0.57349080  0.24503444    -0.82480
O793        O  0.07307013  0.54528551  0.24942954    -0.85120
C794        C  0.07584255  0.50939112  0.25849912     1.02590
O795        O  0.04785915  0.97013736  0.24354255    -0.77880
O796        O  0.45615510  0.90342533  0.23216140    -0.78070
C797        C  0.41688830  0.89783497  0.23559548     1.02540
O798        O  0.40152682  0.97748876  0.16310686    -0.85400
O799        O  0.49069713  0.56410913  0.17296693    -0.82460
C800        C  0.03300592  0.59918377  0.17008005     0.98080
O801        O  0.06599897  0.59579536  0.18535544    -0.82490
O802        O  0.05814106  0.50578238  0.17600065    -0.85090
C803        C  0.05400572  0.96507886  0.16604222     1.02560
O804        O  0.01882197  0.92702823  0.17336739    -0.77910
O805        O  0.44054308  0.93761010  0.16206665    -0.78060
C806        C  0.40541691  0.94305262  0.15100033     1.02520
Cr807      Cr  0.44904173  0.99405217  0.19980010     1.93740
Cr808      Cr  0.02911508  0.54002827  0.20965587     1.93210
Cr809      Cr  0.49712784  0.95745199  0.20318579     1.39100
O810        O  0.48871950  0.99385693  0.22669329    -1.23150
C811        C  0.29325948  0.69831049  0.12612705    -0.20360
C812        C  0.32528336  0.69407711  0.10532408    -0.06920
C813        C  0.34938028  0.72771221  0.07794639     0.13950
C814        C  0.35096811  0.77060290  0.07987994    -0.20410
C815        C  0.32554335  0.77811610  0.10615012    -0.06930
C816        C  0.29341657  0.74054868  0.12721959     0.13940
C817        C  0.26155577  0.74563227  0.15274469    -0.23760
H818        H  0.27327590  0.67133455  0.14603607     0.15220
H819        H  0.37270258  0.79855002  0.06183006     0.15250
C820        C  0.37694450  0.71997169  0.04963193    -0.23710
H821        H  0.24218882  0.71401050  0.16991614     0.05460
H822        H  0.23696020  0.75199429  0.13567774     0.08690
H823        H  0.28077227  0.77502809  0.17224637     0.08690
H824        H  0.36620165  0.72453669  0.02054035     0.08670
H825        H  0.37167641  0.68422819  0.05134138     0.08670
H826        H  0.41323023  0.74471187  0.05454277     0.05450
C827        C  0.47060725  0.71443253  0.22428651    -0.20360
C828        C  0.45632004  0.72370090  0.18845254    -0.06920
C829        C  0.48968466  0.76038576  0.16629789     0.13950
C830        C  0.53436045  0.78045619  0.17980754    -0.20410
C831        C  0.54587698  0.75222574  0.20232198    -0.06930
C832        C  0.51663476  0.72967517  0.23157063     0.13940
C833        C  0.53346162  0.71510569  0.26614628    -0.23760
H834        H  0.44648412  0.69208607  0.24460897     0.15220
H835        H  0.56010363  0.80834810  0.16380485     0.15250
C836        C  0.48210120  0.77445440  0.12673909    -0.23710
H837        H  0.50484002  0.69100205  0.28287088     0.05460
H838        H  0.05621173  0.74601274  0.28322270     0.08690
H839        H  0.05254617  0.69719316  0.25872149     0.08690
H840        H  0.46370068  0.74356813  0.10836394     0.08670
H841        H  0.51433605  0.79677321  0.11270378     0.08670
H842        H  0.46459355  0.79530656  0.12761946     0.05450
C843        C  0.25034533  0.49989646  0.18613074    -0.20360
C844        C  0.21784247  0.51509696  0.18607887    -0.06920
C845        C  0.23211043  0.56098859  0.19891176     0.13950
C846        C  0.27805835  0.59033721  0.20602876    -0.20410
C847        C  0.30952664  0.57843239  0.19314236    -0.06930
C848        C  0.29631136  0.53188239  0.18677791     0.13940
C849        C  0.32957769  0.51636765  0.17684778    -0.23760
H850        H  0.24021456  0.96406402  0.18027016     0.15220
H851        H  0.28961044  0.62629800  0.21293858     0.15250
C852        C  0.20170610  0.58223248  0.20170763    -0.23710
H853        H  0.32191528  0.50216824  0.14764690     0.05460
H854        H  0.32723073  0.48910622  0.19699555     0.08690
H855        H  0.36472135  0.54523451  0.17831368     0.08690
H856        H  0.17906857  0.56620127  0.22526129     0.08670
H857        H  0.18189888  0.57824918  0.17509527     0.08670
H858        H  0.22074131  0.61985360  0.20794993     0.05450
C859        C  0.20361775  0.76445044  0.30839266    -0.20360
C860        C  0.22700258  0.79449058  0.33872684    -0.06920
C861        C  0.27216721  0.82904474  0.33482015     0.13950
C862        C  0.29254244  0.83294632  0.30092688    -0.20410
C863        C  0.27065384  0.80129446  0.27127875    -0.06930
C864        C  0.22519284  0.76724233  0.27459815     0.13940
C865        C  0.19953496  0.73470240  0.24244451    -0.23760
H866        H  0.16823597  0.73966468  0.31080262     0.15220
H867        H  0.32767904  0.85877652  0.29926256     0.15250
C868        C  0.30050606  0.86269828  0.36567132    -0.23710
H869        H  0.16381839  0.71154472  0.24934904     0.05460
H870        H  0.21468121  0.71262414  0.23600478     0.08690
H871        H  0.20011506  0.75494602  0.21678325     0.08690
H872        H  0.28352166  0.85586386  0.39297470     0.08670
H873        H  0.30990569  0.89840867  0.35642488     0.08670
H874        H  0.33203311  0.86080164  0.37061482     0.05450
C875        C  0.19396620  0.95053322  0.35478090    -0.20360
C876        C  0.14985090  0.94435464  0.35171544    -0.06920
C877        C  0.11643359  0.91047525  0.37447393     0.13950
C878        C  0.12712962  0.88076670  0.39627892    -0.20410
C879        C  0.17121507  0.88668891  0.39775801    -0.06930
C880        C  0.20580329  0.92657324  0.38121238     0.13940
C881        C  0.25532563  0.94217424  0.38843745    -0.23760
H882        H  0.22057461  0.47704798  0.33830961     0.15220
H883        H  0.10037339  0.85164504  0.41027509     0.15250
C884        C  0.07001018  0.90539786  0.37602507    -0.23710
H885        H  0.27329286  0.97860971  0.39813450     0.05460
H886        H  0.27077029  0.94070886  0.36176816     0.08690
H887        H  0.26082302  0.92081690  0.41049884     0.08690
H888        H  0.05220791  0.89439319  0.34806390     0.08670
H889        H  0.07242735  0.93878972  0.38429143     0.08670
H890        H  0.04935319  0.87890936  0.39711962     0.05450
C891        C  0.06425630  0.73774541  0.39989123    -0.20360
C892        C  0.09569433  0.72511591  0.41470708    -0.06920
C893        C  0.08551805  0.67839668  0.41216374     0.13950
C894        C  0.04920050  0.64829351  0.38861639    -0.20410
C895        C  0.02307825  0.66422873  0.36814346    -0.06930
C896        C  0.03031811  0.70967880  0.37452990     0.13940
C897        C  0.50639783  0.73251215  0.35330945    -0.23760
H898        H  0.07011733  0.77273369  0.40259875     0.15220
H899        H  0.04199645  0.61277709  0.38548447     0.15250
C900        C  0.11382733  0.66057268  0.43257325    -0.23710
H901        H  0.53161593  0.76457637  0.33936992     0.05460
H902        H  0.48830202  0.74243939  0.37318851     0.08690
H903        H  0.48161620  0.71148197  0.33118020     0.08690
H904        H  0.14065123  0.68749961  0.45090144     0.08670
H905        H  0.12961931  0.64861057  0.41175317     0.08670
H906        H  0.09225218  0.63095774  0.45080812     0.05450
C907        C  0.42984838  0.89280439  0.03404117    -0.20360
C908        C  0.43297287  0.93634685  0.53920009    -0.06920
C909        C  0.41604358  0.95473334  0.50941439     0.13950
C910        C  0.39395320  0.92748451  0.47806316    -0.20410
C911        C  0.38662743  0.88259676  0.47605787    -0.06930
C912        C  0.40909822  0.86695182  0.50156318     0.13940
C913        C  0.41065467  0.82294468  0.99465700    -0.23760
H914        H  0.44399213  0.87895700  0.05531229     0.15220
H915        H  0.37714305  0.93890954  0.45709451     0.15250
C916        C  0.41966163  0.00210467  0.50865805    -0.23710
H917        H  0.43083490  0.81656794  0.01712213     0.05460
H918        H  0.42678213  0.82550392  0.46733779     0.08690
H919        H  0.37611187  0.79316025  0.99364373     0.08690
H920        H  0.45484696  0.02846746  0.51337216     0.08670
H921        H  0.39723255  0.00466644  0.02924439     0.08670
H922        H  0.40918899  0.01048211  0.48068028     0.05450
C923        C  0.45239203  0.58758071  0.09041039    -0.20360
C924        C  0.98929477  0.58273661  0.57942097    -0.06920
C925        C  0.01090893  0.60455629  0.54530736     0.13950
C926        C  0.98958739  0.62120190  0.52047593    -0.20410
C927        C  0.95438093  0.62788866  0.53201976    -0.06930
C928        C  0.43606432  0.61186327  0.06769230     0.13940
C929        C  0.39964704  0.62026786  0.08159726    -0.23760
H930        H  0.43556533  0.57107918  0.11624070     0.15220
H931        H  0.00498579  0.63580867  0.49359270     0.15250
C932        C  0.05614669  0.61285199  0.53254659    -0.23710
H933        H  0.38736793  0.60258320  0.10904783     0.05460
H934        H  0.37081566  0.60690638  0.56074591     0.08690
H935        H  0.41332561  0.65789541  0.08577567     0.08690
H936        H  0.07567660  0.60342654  0.55257637     0.08670
H937        H  0.07772255  0.65046819  0.52747093     0.08670
H938        H  0.05191139  0.59510012  0.50527659     0.05450
C939        C  0.11990001  0.05221770  0.50773875    -0.20360
C940        C  0.16046086  0.56358888  0.52677208    -0.06920
C941        C  0.16344787  0.56369655  0.06652382     0.13950
C942        C  0.12383366  0.54626721  0.08653674    -0.20410
C943        C  0.08198853  0.52509900  0.56686926    -0.06930
C944        C  0.08013843  0.02811679  0.52658718     0.13940
C945        C  0.03720435  0.00555684  0.50246880    -0.23760
H946        H  0.11878768  0.05309573  0.47695629     0.15220
H947        H  0.12536319  0.54728152  0.11718731     0.15250
C948        C  0.20820897  0.57917109  0.08680193    -0.23710
H949        H  0.04296990  0.01513422  0.47206787     0.05460
H950        H  0.01336508  0.51651951  0.51193965     0.08690
H951        H  0.02197552  0.96741631  0.50401263     0.08690
H952        H  0.23161428  0.61554457  0.07905831     0.08670
H953        H  0.22281571  0.05702532  0.07876357     0.08670
H954        H  0.20514205  0.57703214  0.11784450     0.05450
C955        C  0.04086830  0.50937992  0.58795134     0.03080
C956        C  0.03389174  0.54457111  0.10138945    -0.13070
C957        C  0.99227838  0.54226732  0.09434220     0.00580
C958        C  0.45516541  0.99955924  0.08575780    -0.11600
C959        C  0.46189313  0.96460474  0.57144565     0.03070
C960        C  0.50406220  0.96704434  0.57793551    -0.11020
H961        H  0.06283009  0.57728270  0.10866853     0.08670
H962        H  0.42213095  0.99657519  0.08309380     0.06200
H963        H  0.51109685  0.94144864  0.56588761     0.06040
C964        C  0.20149517  0.79727960  0.87002588     0.03080
C965        C  0.17163809  0.75892149  0.89037583    -0.13070
C966        C  0.14275285  0.76315726  0.91562214     0.00580
C967        C  0.15075053  0.80793673  0.92514975    -0.11600
C968        C  0.17737217  0.84538875  0.90197322     0.03070
C969        C  0.20119900  0.83856319  0.87387302    -0.11020
H970        H  0.16681276  0.72540061  0.88226138     0.08670
H971        H  0.12900604  0.81168884  0.94456189     0.06200
H972        H  0.21731965  0.86434432  0.85216272     0.06040
C973        C  0.34934583  0.67426496  0.62703509     0.03080
C974        C  0.32784067  0.62822628  0.63793002    -0.13070
C975        C  0.34405547  0.61463050  0.67016840     0.00580
C976        C  0.38666154  0.64452210  0.68599550    -0.11600
C977        C  0.41028810  0.69080679  0.67330009     0.03070
C978        C  0.38865826  0.70549132  0.64655271    -0.11020
H979        H  0.29451950  0.60534598  0.62605286     0.08670
H980        H  0.39944571  0.63210353  0.70937525     0.06200
H981        H  0.40014615  0.74183328  0.64277303     0.06040
C982        C  0.29940508  0.77875967  0.92537284     0.03080
C983        C  0.34037668  0.81792035  0.93347240    -0.13070
C984        C  0.34334204  0.84941240  0.95957092     0.00580
C985        C  0.30496579  0.84614410  0.47510871    -0.11600
C986        C  0.26194983  0.81003670  0.46635786     0.03070
C987        C  0.25925030  0.77398207  0.94242169    -0.11020
H988        H  0.37131042  0.82302767  0.92143234     0.08670
H989        H  0.30955620  0.87152547  0.49628455     0.06200
H990        H  0.22733778  0.74318363  0.93741338     0.06040
C991        C  0.35219226  0.77485507  0.77671803     0.03080
C992        C  0.31058227  0.76164298  0.75811195    -0.13070
C993        C  0.30088469  0.79618739  0.74542137     0.00580
C994        C  0.33643239  0.83750315  0.73232651    -0.11600
C995        C  0.38049168  0.85109271  0.74588152     0.03070
C996        C  0.38828541  0.81971292  0.76916044    -0.11020
H997        H  0.28250931  0.72818623  0.76463830     0.08670
H998        H  0.32876637  0.86271117  0.71873910     0.06200
H999        H  0.42108692  0.83095896  0.78273642     0.06040
C1000       C  0.29050286  0.86808571  0.59608964     0.03080
C1001       C  0.29254279  0.82746586  0.59346287    -0.13070
C1002       C  0.32895234  0.82386177  0.60796295     0.00580
C1003       C  0.36643881  0.86220971  0.62436378    -0.11600
C1004       C  0.36702985  0.90505033  0.62774941     0.03070
C1005       C  0.32825504  0.90770910  0.61307513    -0.11020
H1006       H  0.26546115  0.79753867  0.57930164     0.08670
H1007       H  0.39418657  0.85779107  0.63586296     0.06200
H1008       H  0.32734131  0.93986612  0.61498457     0.06040
C1009       C  0.22662727  0.55400083  0.94992166     0.03080
C1010       C  0.21131514  0.57416593  0.97569176    -0.13070
C1011       C  0.18687128  0.54869257  0.00609492     0.00580
C1012       C  0.17530265  0.00232375  0.51018490    -0.11600
C1013       C  0.18903687  0.98083250  0.48461126     0.03070
C1014       C  0.21691268  0.50743006  0.95507754    -0.11020
H1015       H  0.21743329  0.60936543  0.97180171     0.08670
H1016       H  0.15426616  0.98250836  0.53335441     0.06200
H1017       H  0.22988472  0.49201540  0.93610969     0.06040
C1018       C  0.04450965  0.64756472  0.65594869     0.03080
C1019       C  0.03719168  0.67470638  0.68174516    -0.13070
C1020       C  0.05947968  0.72369408  0.67937598     0.00580
C1021       C  0.08745157  0.74527682  0.64912626    -0.11600
C1022       C  0.08936067  0.72028697  0.61888621     0.03070
C1023       C  0.07157491  0.67125516  0.62394877    -0.11020
H1024       H  0.51463073  0.65698619  0.70447684     0.08670
H1025       H  0.10536913  0.78266189  0.64751378     0.06200
H1026       H  0.07880981  0.65237133  0.60344639     0.06040
C1027       C  0.09403744  0.96215193  0.65288467     0.03080
C1028       C  0.13380871  0.98550743  0.67488735    -0.13070
C1029       C  0.17372074  0.98592488  0.66541508     0.00580
C1030       C  0.17231228  0.95881871  0.63452801    -0.11600
C1031       C  0.13198910  0.92934999  0.61523210     0.03070
C1032       C  0.09243633  0.93174647  0.62413267    -0.11020
H1033       H  0.13246258  0.00171554  0.70048943     0.08670
H1034       H  0.20292073  0.95994627  0.62556369     0.06200
H1035       H  0.06087552  0.91033521  0.60896498     0.06040
O1036       O  0.10612544  0.78609827  0.57604606    -0.85400
O1037       O  0.09485170  0.86658733  0.57164265    -0.82440
C1038       C  0.13239993  0.89694750  0.58601841     0.98060
O1039       O  0.17082082  0.90022891  0.57486317    -0.82480
O1040       O  0.25481314  0.90583633  0.56348947    -0.85120
C1041       C  0.25062570  0.86749212  0.57605373     1.02590
O1042       O  0.21434465  0.82704206  0.56734453    -0.77880
O1043       O  0.13445021  0.73806844  0.56328697    -0.78070
C1044       C  0.11061181  0.74871130  0.58388574     1.02540
O1045       O  0.06951773  0.81070804  0.50627091    -0.85250
O1046       O  0.13951739  0.90403057  0.50576958    -0.82460
C1047       C  0.17918631  0.93364824  0.49510321     0.98080
O1048       O  0.21197967  0.92607004  0.50099140    -0.82490
O1049       O  0.23397236  0.85427405  0.49776540    -0.85090
C1050       C  0.22488351  0.81367638  0.48635732     1.02560
O1051       O  0.18748503  0.77888787  0.49526653    -0.77910
O1052       O  0.09008884  0.75654436  0.50254874    -0.78060
C1053       C  0.06059713  0.77060231  0.49637876     1.02520
Cr1054     Cr  0.12338499  0.84636417  0.53853605     1.93740
Cr1055     Cr  0.20164659  0.87443965  0.53465743     1.93210
Cr1056     Cr  0.15114699  0.79132999  0.53300180     1.39100
O1057       O  0.15621497  0.83763719  0.51228457    -1.23150
C1058       C  0.44124983  0.69419814  0.95072805     0.03080
C1059       C  0.42722944  0.65936021  0.97872537    -0.13070
C1060       C  0.95271531  0.66635856  0.01245611     0.00580
C1061       C  0.99202078  0.70784029  0.51847862    -0.11600
C1062       C  0.01237892  0.73695151  0.48834319     0.03070
C1063       C  0.98522414  0.73359384  0.95549119    -0.11020
H1064       H  0.39711123  0.62642242  0.97416205     0.08670
H1065       H  0.01169315  0.71215154  0.54466287     0.06200
H1066       H  0.99837656  0.76040135  0.93424943     0.06040
C1067       C  0.11255912  0.51430719  0.78559394     0.03080
C1068       C  0.11118948  0.47527206  0.80414204    -0.13070
C1069       C  0.14494928  0.48152163  0.83151801     0.00580
C1070       C  0.17976270  0.52576164  0.83861326    -0.11600
C1071       C  0.18623038  0.56301438  0.81640650     0.03070
C1072       C  0.15056756  0.55870517  0.79226252    -0.11020
H1073       H  0.08441972  0.94092872  0.79729831     0.08670
H1074       H  0.20392854  0.53084635  0.86142315     0.06200
H1075       H  0.15313546  0.58909977  0.77784101     0.06040
C1076       C  0.45732994  0.58790824  0.78434888     0.03080
C1077       C  0.41620274  0.58994749  0.78802467    -0.13070
C1078       C  0.41139264  0.61337410  0.81968130     0.00580
C1079       C  0.44447666  0.62875569  0.84815003    -0.11600
C1080       C  0.48603338  0.63252333  0.84281265     0.03070
C1081       C  0.49241732  0.61100520  0.81172688    -0.11020
H1082       H  0.38917453  0.57422018  0.76684205     0.08670
H1083       H  0.44011499  0.64334543  0.87372877     0.06200
H1084       H  0.52498021  0.61310573  0.80863628     0.06040
O1085       O  0.24288179  0.61323110  0.90411043    -0.85400
O1086       O  0.26825335  0.70614774  0.89308046    -0.82440
C1087       C  0.30285389  0.74369346  0.90162215     0.98060
O1088       O  0.34181476  0.75116133  0.89067425    -0.82480
O1089       O  0.40852645  0.72176846  0.90133673    -0.85120
C1090       C  0.40896064  0.68725749  0.91785590     1.02590
O1091       O  0.37925998  0.64581280  0.90781935    -0.77880
O1092       O  0.28698261  0.58089991  0.90813084    -0.78070
C1093       C  0.25303600  0.58339075  0.91883369     1.02540
O1094       O  0.22557719  0.64157986  0.83376877    -0.85400
O1095       O  0.31336473  0.71306515  0.82171228    -0.82460
C1096       C  0.35258844  0.74576941  0.80964906     0.98080
O1097       O  0.38988339  0.75471677  0.82709670    -0.82490
O1098       O  0.38059595  0.66396882  0.83401118    -0.85090
C1099       C  0.37307171  0.62082713  0.82953518     1.02560
O1100       O  0.33948483  0.58656682  0.84433124    -0.77910
O1101       O  0.26444918  0.60104426  0.83430972    -0.78060
C1102       C  0.22832496  0.60556768  0.82566953     1.02520
Cr1103     Cr  0.27754215  0.66137697  0.86415851     1.93740
Cr1104     Cr  0.35903053  0.70810177  0.86285020     1.93210
Cr1105     Cr  0.32478774  0.62599988  0.87037066     1.39100
O1106       O  0.32150781  0.66835868  0.88848884    -1.23150
O1107       O  0.40808072  0.93089387  0.72639527    -0.85400
O1108       O  0.43275620  0.52725300  0.73732830    -0.82440
C1109       C  0.96550644  0.56205218  0.75358521     0.98060
O1110       O  0.00637068  0.57349023  0.74503470    -0.82480
O1111       O  0.07307004  0.54528500  0.74942979    -0.85120
C1112       C  0.07584249  0.50939062  0.75849932     1.02590
O1113       O  0.04785903  0.97013749  0.74354255    -0.77880
O1114       O  0.45615504  0.90342511  0.73216156    -0.78070
C1115       C  0.41688822  0.89783475  0.73559559     1.02540
O1116       O  0.40152678  0.97748845  0.66310696    -0.85400
O1117       O  0.49069749  0.56410928  0.67296681    -0.82460
C1118       C  0.03300617  0.59918346  0.67008027     0.98080
O1119       O  0.06599915  0.59579504  0.68535578    -0.82490
O1120       O  0.05814122  0.50578217  0.67600080    -0.85090
C1121       C  0.05400587  0.96507907  0.66604230     1.02560
O1122       O  0.01882200  0.92702849  0.67336732    -0.77910
O1123       O  0.44054304  0.93760979  0.66206683    -0.78060
C1124       C  0.40541684  0.94305225  0.65100052     1.02520
Cr1125     Cr  0.44904169  0.99405197  0.69980023     1.93740
Cr1126     Cr  0.02911513  0.54002789  0.70965606     1.93210
Cr1127     Cr  0.49712781  0.95745179  0.70318598     1.39100
O1128       O  0.48871942  0.99385672  0.72669346    -1.23150
C1129       C  0.29325925  0.69830987  0.62612730    -0.20360
C1130       C  0.32528311  0.69407653  0.60532428    -0.06920
C1131       C  0.34937997  0.72771166  0.57794660     0.13950
C1132       C  0.35096783  0.77060237  0.57988025    -0.20410
C1133       C  0.32554308  0.77811552  0.60615047    -0.06930
C1134       C  0.29341627  0.74054802  0.62721987     0.13940
C1135       C  0.26155535  0.74563148  0.65274490    -0.23760
H1136       H  0.27327569  0.67133388  0.64603631     0.15220
H1137       H  0.37270230  0.79854952  0.56183040     0.15250
C1138       C  0.37694415  0.71997116  0.54963208    -0.23710
H1139       H  0.24218844  0.71400967  0.66991634     0.05460
H1140       H  0.23695974  0.75199338  0.63567790     0.08690
H1141       H  0.28077172  0.77502731  0.67224658     0.08690
H1142       H  0.36620120  0.72453609  0.52054052     0.08670
H1143       H  0.37167614  0.68422769  0.55134155     0.08670
H1144       H  0.41322988  0.74471138  0.55454285     0.05450
C1145       C  0.47060728  0.71443236  0.72428644    -0.20360
C1146       C  0.45632001  0.72370053  0.68845242    -0.06920
C1147       C  0.48968453  0.76038533  0.66629767     0.13950
C1148       C  0.53436032  0.78045602  0.67980734    -0.20410
C1149       C  0.54587701  0.75222580  0.70232193    -0.06930
C1150       C  0.51663482  0.72967521  0.73157059     0.13940
C1151       C  0.53346176  0.71510586  0.76614626    -0.23760
H1152       H  0.44648418  0.69208587  0.74460891     0.15220
H1153       H  0.56010341  0.80834790  0.66380457     0.15250
C1154       C  0.48210098  0.77445354  0.62673873    -0.23710
H1155       H  0.50484021  0.69100218  0.78287088     0.05460
H1156       H  0.05621924  0.74601236  0.78322526     0.08690
H1157       H  0.05255184  0.69719245  0.75872311     0.08690
H1158       H  0.46370046  0.74356708  0.60836379     0.08670
H1159       H  0.51433581  0.79677222  0.61270334     0.08670
H1160       H  0.46459329  0.79530568  0.62761886     0.05450
C1161       C  0.25034545  0.49989602  0.68613090    -0.20360
C1162       C  0.21784266  0.51509660  0.68607909    -0.06920
C1163       C  0.23211070  0.56098822  0.69891207     0.13950
C1164       C  0.27805865  0.59033676  0.70602904    -0.20410
C1165       C  0.30952686  0.57843190  0.69314251    -0.06930
C1166       C  0.29631149  0.53188189  0.68677801     0.13940
C1167       C  0.32957774  0.51636710  0.67684776    -0.23760
H1168       H  0.24021484  0.96406421  0.68027016     0.15220
H1169       H  0.28961080  0.62629755  0.71293892     0.15250
C1170       C  0.20170644  0.58223215  0.70170807    -0.23710
H1171       H  0.32191526  0.50216775  0.64764686     0.05460
H1172       H  0.32723079  0.48910561  0.69699547     0.08690
H1173       H  0.36472142  0.54523393  0.67831363     0.08690
H1174       H  0.17906889  0.56620084  0.72526170     0.08670
H1175       H  0.18189924  0.57824901  0.67509572     0.08670
H1176       H  0.22074169  0.61985323  0.70795050     0.05450
C1177       C  0.20361704  0.76444997  0.80839184    -0.20360
C1178       C  0.22700163  0.79449016  0.83872605    -0.06920
C1179       C  0.27216622  0.82904448  0.83481947     0.13950
C1180       C  0.29254166  0.83294615  0.80092630    -0.20410
C1181       C  0.27065336  0.80129418  0.77127820    -0.06930
C1182       C  0.22519237  0.76724192  0.77459745     0.13940
C1183       C  0.19953476  0.73470190  0.74244379    -0.23760
H1184       H  0.16823528  0.73966409  0.81080170     0.15220
H1185       H  0.32767824  0.85877646  0.79926209     0.15250
C1186       C  0.30050487  0.86269804  0.86567069    -0.23710
H1187       H  0.16381815  0.71154416  0.74934819     0.05460
H1188       H  0.21468115  0.71262370  0.73600429     0.08690
H1189       H  0.20011495  0.75494543  0.71678246     0.08690
H1190       H  0.28352034  0.85586358  0.89297401     0.08670
H1191       H  0.30990451  0.89840841  0.85642421     0.08670
H1192       H  0.33203195  0.86080149  0.87061432     0.05450
C1193       C  0.19396561  0.95053311  0.85478151    -0.20360
C1194       C  0.14985034  0.94435460  0.85171586    -0.06920
C1195       C  0.11643276  0.91047486  0.87447395     0.13950
C1196       C  0.12712853  0.88076589  0.89627862    -0.20410
C1197       C  0.17121394  0.88668802  0.89775783    -0.06930
C1198       C  0.20580239  0.92657258  0.88121267     0.13940
C1199       C  0.25532463  0.94217311  0.88843771    -0.23760
H1200       H  0.22057475  0.47704771  0.83830994     0.15220
H1201       H  0.10037212  0.85164392  0.91027437     0.15250
C1202       C  0.07000935  0.90539748  0.87602498    -0.23710
H1203       H  0.27329212  0.97860845  0.89813511     0.05460
H1204       H  0.27076923  0.94070797  0.86176831     0.08690
H1205       H  0.26082179  0.92081534  0.91049883     0.08690
H1206       H  0.05220725  0.89439311  0.84806373     0.08670
H1207       H  0.07242650  0.93878926  0.88429157     0.08670
H1208       H  0.04935222  0.87890876  0.89711933     0.05450
C1209       C  0.06425540  0.73774378  0.89989081    -0.20360
C1210       C  0.09569371  0.72511474  0.91470680    -0.06920
C1211       C  0.08551767  0.67839552  0.91216411     0.13950
C1212       C  0.04919966  0.64829161  0.88861749    -0.20410
C1213       C  0.02307685  0.66422614  0.86814454    -0.06930
C1214       C  0.03031674  0.70967639  0.87453015     0.13940
C1215       C  0.50639792  0.73251223  0.85330926    -0.23760
H1216       H  0.07011647  0.77273217  0.90259764     0.15220
H1217       H  0.04199577  0.61277519  0.88548604     0.15250
C1218       C  0.11382765  0.66057227  0.93257346    -0.23710
H1219       H  0.53161595  0.76457642  0.83936965     0.05460
H1220       H  0.48830220  0.74243952  0.87318837     0.08690
H1221       H  0.48161618  0.71148199  0.83118010     0.08690
H1222       H  0.14065180  0.68749968  0.95090114     0.08670
H1223       H  0.12961936  0.64860996  0.91175329     0.08670
H1224       H  0.09225308  0.63095762  0.95080881     0.05450
C1225       C  0.42984864  0.89280419  0.53404201    -0.20360
C1226       C  0.43297267  0.93634707  0.03919929    -0.06920
C1227       C  0.41604359  0.95473372  0.00941356     0.13950
C1228       C  0.39395334  0.92748502  0.97806223    -0.20410
C1229       C  0.38662741  0.88259721  0.97605691    -0.06930
C1230       C  0.40909800  0.86695210  0.00156229     0.13940
C1231       C  0.41065513  0.82294456  0.49465779    -0.23760
H1232       H  0.44399252  0.87895689  0.55531310     0.15220
H1233       H  0.37714334  0.93891018  0.95709353     0.15250
C1234       C  0.41966172  0.00210508  0.00865731    -0.23710
H1235       H  0.43083539  0.81656785  0.51712291     0.05460
H1236       H  0.42678159  0.82550385  0.96733700     0.08690
H1237       H  0.37611240  0.79316003  0.49364441     0.08690
H1238       H  0.45484703  0.02846782  0.01337157     0.08670
H1239       H  0.39723254  0.00466609  0.52924517     0.08670
H1240       H  0.40918922  0.01048265  0.98067953     0.05450
C1241       C  0.45239225  0.58758033  0.59041027    -0.20360
C1242       C  0.98929481  0.58273645  0.07942075    -0.06920
C1243       C  0.01090972  0.60455623  0.04530740     0.13950
C1244       C  0.98958854  0.62120158  0.02047532    -0.20410
C1245       C  0.95438136  0.62788770  0.03201819    -0.06930
C1246       C  0.43606440  0.61186285  0.56769227     0.13940
C1247       C  0.39964673  0.62026688  0.58159716    -0.23760
H1248       H  0.43556543  0.57107845  0.61624045     0.15220
H1249       H  0.00498762  0.63580863  0.99359237     0.15250
C1250       C  0.05614798  0.61285244  0.03254746    -0.23710
H1251       H  0.38736750  0.60258191  0.60904761     0.05460
H1252       H  0.37081581  0.60690737  0.06074617     0.08690
H1253       H  0.41332497  0.65789434  0.58577578     0.08690
H1254       H  0.07567772  0.60342717  0.05257757     0.08670
H1255       H  0.07772367  0.65046870  0.02747195     0.08670
H1256       H  0.05191345  0.59510076  0.00527752     0.05450
C1257       C  0.11989850  0.05221728  0.00773831    -0.20360
C1258       C  0.16046041  0.56358861  0.02677186    -0.06920
C1259       C  0.16344819  0.56369670  0.56652405     0.13950
C1260       C  0.12383392  0.54626735  0.58653687    -0.20410
C1261       C  0.08198821  0.52509883  0.06686922    -0.06930
C1262       C  0.08013707  0.02811670  0.02658702     0.13940
C1263       C  0.03720273  0.00555713  0.00246893    -0.23760
H1264       H  0.11878590  0.05309521  0.97695585     0.15220
H1265       H  0.12536335  0.54728161  0.61718745     0.15250
C1266       C  0.20820922  0.57917114  0.58680225    -0.23710
H1267       H  0.04296805  0.01513453  0.97206799     0.05460
H1268       H  0.01336475  0.51651987  0.01193984     0.08690
H1269       H  0.02197361  0.96741657  0.00401269     0.08690
H1270       H  0.23161459  0.61554461  0.57905866     0.08670
H1271       H  0.22281667  0.05702573  0.57876470     0.08670
H1272       H  0.20514220  0.57703215  0.61784480     0.05450
C1273       C  0.54087957  0.00938988  0.08795694     0.03080
C1274       C  0.53390474  0.04458420  0.60138985    -0.13070
C1275       C  0.49229000  0.04227764  0.59434453     0.00580
C1276       C  0.95515480  0.49955160  0.58574779    -0.11600
C1277       C  0.96188305  0.46459917  0.07143191     0.03070
C1278       C  0.00405075  0.46703631  0.07792394    -0.11020
H1279       H  0.56284364  0.07729738  0.60866395     0.08670
H1280       H  0.92212096  0.49656891  0.58308123     0.06200
H1281       H  0.01108589  0.44144205  0.06587380     0.06040
C1282       C  0.70148808  0.29727959  0.37000992     0.03080
C1283       C  0.67163671  0.25892117  0.39036306    -0.13070
C1284       C  0.64275537  0.26315562  0.41561479     0.00580
C1285       C  0.65075213  0.30793443  0.42514344    -0.11600
C1286       C  0.67736795  0.34538623  0.40196469     0.03070
C1287       C  0.70118979  0.33856194  0.37385926    -0.11020
H1288       H  0.66681263  0.22540082  0.38224844     0.08670
H1289       H  0.62901091  0.31168590  0.44455975     0.06200
H1290       H  0.71730718  0.36434449  0.35214909     0.06040
C1291       C  0.84936436  0.17427953  0.12704860     0.03080
C1292       C  0.82785780  0.12824034  0.13794166    -0.13070
C1293       C  0.84406560  0.11464355  0.17018367     0.00580
C1294       C  0.88666871  0.14453504  0.18601685    -0.11600
C1295       C  0.91029876  0.19082044  0.17332258     0.03070
C1296       C  0.88867190  0.20550566  0.14657237    -0.11020
H1297       H  0.79453949  0.10535986  0.12605899     0.08670
H1298       H  0.89944816  0.13211479  0.20939866     0.06200
H1299       H  0.90015778  0.24184719  0.14279407     0.06040
C1300       C  0.79939823  0.27876175  0.42536195     0.03080
C1301       C  0.84036840  0.31792760  0.43345340    -0.13070
C1302       C  0.84333514  0.34942233  0.45954972     0.00580
C1303       C  0.80496007  0.34615433  0.97508903    -0.11600
C1304       C  0.76194437  0.31004113  0.96634661     0.03070
C1305       C  0.75924472  0.27398301  0.44241454    -0.11020
H1306       H  0.87130128  0.32303594  0.42141086     0.08670
H1307       H  0.80955245  0.37153865  0.99626268     0.06200
H1308       H  0.72733326  0.24318123  0.43741217     0.06040
C1309       C  0.85219102  0.27485477  0.27671590     0.03080
C1310       C  0.81058139  0.26164126  0.25810836    -0.13070
C1311       C  0.80088412  0.29618402  0.24541182     0.00580
C1312       C  0.83643272  0.33749887  0.23231658    -0.11600
C1313       C  0.88049066  0.35109129  0.24587704     0.03070
C1314       C  0.88828369  0.31971308  0.26915875    -0.11020
H1315       H  0.78250824  0.22818504  0.26463563     0.08670
H1316       H  0.82876730  0.36270536  0.21872532     0.06200
H1317       H  0.92108431  0.33096066  0.28273700     0.06040
C1318       C  0.79050338  0.36808750  0.09608641     0.03080
C1319       C  0.79254505  0.32746864  0.09345891    -0.13070
C1320       C  0.82895491  0.32386569  0.10795998     0.00580
C1321       C  0.86644045  0.36221396  0.12436100    -0.11600
C1322       C  0.86703029  0.40505366  0.12774687     0.03070
C1323       C  0.82825484  0.40771130  0.11307250    -0.11020
H1324       H  0.76546479  0.29754169  0.07929633     0.08670
H1325       H  0.89418856  0.35779601  0.13586038     0.06200
H1326       H  0.82734014  0.43986771  0.11498215     0.06040
C1327       C  0.72662593  0.05399835  0.44991762     0.03080
C1328       C  0.71131533  0.07416444  0.47568799    -0.13070
C1329       C  0.68687380  0.04869254  0.50609242     0.00580
C1330       C  0.67529847  0.50232320  0.01018522    -0.11600
C1331       C  0.68903472  0.48083334  0.98461205     0.03070
C1332       C  0.71691213  0.00742794  0.45507463    -0.11020
H1333       H  0.71743337  0.10936383  0.47179749     0.08670
H1334       H  0.65426025  0.48250654  0.03335349     0.06200
H1335       H  0.72988369  0.99201251  0.43610646     0.06040
C1336       C  0.54451062  0.14756550  0.15594993     0.03080
C1337       C  0.53719572  0.17470753  0.18174828    -0.13070
C1338       C  0.55948297  0.22369513  0.17937879     0.00580
C1339       C  0.58744971  0.24527761  0.14912580    -0.11600
C1340       C  0.58935819  0.22028750  0.11888549     0.03070
C1341       C  0.57157321  0.17125587  0.12394844    -0.11020
H1342       H  0.01464012  0.15698736  0.20448376     0.08670
H1343       H  0.60536644  0.28266256  0.14751241     0.06200
H1344       H  0.57880667  0.15237253  0.10344458     0.06040
C1345       C  0.59403466  0.46215000  0.15288471     0.03080
C1346       C  0.63380496  0.48550246  0.17488899    -0.13070
C1347       C  0.67371628  0.48591806  0.16541750     0.00580
C1348       C  0.67230801  0.45881343  0.13452945    -0.11600
C1349       C  0.63198543  0.42934735  0.11523194     0.03070
C1350       C  0.59243326  0.43174536  0.12413179    -0.11020
H1351       H  0.63245855  0.50170978  0.20049146     0.08670
H1352       H  0.70291620  0.45994019  0.12556545     0.06200
H1353       H  0.56087283  0.41033611  0.10896283     0.06040
O1354       O  0.60612306  0.28609832  0.07604456    -0.85400
O1355       O  0.59484861  0.36658662  0.07164102    -0.82440
C1356       C  0.63239668  0.39694602  0.08601755     0.98060
O1357       O  0.67081783  0.40022753  0.07486269    -0.82480
O1358       O  0.75481109  0.40583655  0.06348779    -0.85120
C1359       C  0.75062513  0.36749266  0.07605117     1.02590
O1360       O  0.71434442  0.32704229  0.06734195    -0.77880
O1361       O  0.63444840  0.23806884  0.06328607    -0.78070
C1362       C  0.61060952  0.24871152  0.08388463     1.02540
O1363       O  0.56951597  0.31070857  0.00626920    -0.85250
O1364       O  0.63951489  0.40403084  0.00576876    -0.82460
C1365       C  0.67918394  0.43364886  0.99510304     0.98080
O1366       O  0.71197719  0.42607058  0.00099108    -0.82490
O1367       O  0.73396900  0.35427509  0.99776267    -0.85090
C1368       C  0.72488001  0.31367817  0.98635242     1.02560
O1369       O  0.68748264  0.27888883  0.99526302    -0.77910
O1370       O  0.59008707  0.25654477  0.00254785    -0.78060
C1371       C  0.56059543  0.27060273  0.99637764     1.02520
Cr1372     Cr  0.62338256  0.34636423  0.03853470     1.93740
Cr1373     Cr  0.70164409  0.37443962  0.03465621     1.93210
Cr1374     Cr  0.65114560  0.29133034  0.03300024     1.39100
O1375       O  0.65621267  0.33763746  0.01228331    -1.23150
C1376       C  0.94124727  0.19419909  0.45072977     0.03080
C1377       C  0.92722702  0.15936160  0.47872769    -0.13070
C1378       C  0.45271374  0.16636014  0.51245825     0.00580
C1379       C  0.49202012  0.20784075  0.01847862    -0.11600
C1380       C  0.51237731  0.23695192  0.98834295     0.03070
C1381       C  0.48522192  0.23359465  0.45549235    -0.11020
H1382       H  0.89710852  0.12642396  0.47416480     0.08670
H1383       H  0.51169333  0.21215185  0.04466235     0.06200
H1384       H  0.49837422  0.26040196  0.43425040     0.06040
C1385       C  0.61256209  0.01430549  0.28559088     0.03080
C1386       C  0.61119362  0.97526988  0.30413708    -0.13070
C1387       C  0.64495577  0.98151865  0.33151019     0.00580
C1388       C  0.67977066  0.02575831  0.33860399    -0.11600
C1389       C  0.68623534  0.06301212  0.31639996     0.03070
C1390       C  0.65057060  0.05870330  0.29225893    -0.11020
H1391       H  0.58441706  0.44093088  0.29730154     0.08670
H1392       H  0.70393815  0.03084270  0.36141243     0.06200
H1393       H  0.65313663  0.08909844  0.27783979     0.06040
C1394       C  0.95733094  0.08790528  0.28435180     0.03080
C1395       C  0.91620517  0.08994761  0.28802626    -0.13070
C1396       C  0.91139438  0.11337234  0.31968388     0.00580
C1397       C  0.94447544  0.12874787  0.34815508    -0.11600
C1398       C  0.98603187  0.13251391  0.34281876     0.03070
C1399       C  0.99241648  0.11099745  0.31173215    -0.11020
H1400       H  0.88917848  0.07422390  0.26684194     0.08670
H1401       H  0.94011285  0.14333620  0.37373434     0.06200
H1402       H  0.02497893  0.11309673  0.30864215     0.06040
O1403       O  0.74287975  0.11322821  0.40410619    -0.85400
O1404       O  0.76824932  0.20614518  0.39307614    -0.82440
C1405       C  0.80284890  0.24369234  0.40161649     0.98060
O1406       O  0.84181058  0.25116013  0.39067049    -0.82480
O1407       O  0.90852428  0.22176881  0.40133718    -0.85120
C1408       C  0.90895860  0.18725809  0.41785700     1.02590
O1409       O  0.87925881  0.14581324  0.40782018    -0.77880
O1410       O  0.78698196  0.08089878  0.40812794    -0.78070
C1411       C  0.75303427  0.08338818  0.41882961     1.02540
O1412       O  0.72557725  0.14157696  0.33376412    -0.85400
O1413       O  0.81336386  0.21306412  0.32170975    -0.82460
C1414       C  0.85258744  0.24576895  0.30964696     0.98080
O1415       O  0.88988232  0.25471639  0.32709490    -0.82490
O1416       O  0.88059833  0.16396906  0.33401174    -0.85090
C1417       C  0.87307414  0.12082722  0.32953634     1.02560
O1418       O  0.83948668  0.08656723  0.34433174    -0.77910
O1419       O  0.76445287  0.10104496  0.33430569    -0.78060
C1420       C  0.72832783  0.10556640  0.32566464     1.02520
Cr1421     Cr  0.77754098  0.16137524  0.36415538     1.93740
Cr1422     Cr  0.85902961  0.20810122  0.36284870     1.93210
Cr1423     Cr  0.82478853  0.12600018  0.37036946     1.39100
O1424       O  0.82150640  0.16835805  0.38848697    -1.23150
O1425       O  0.90807881  0.43089358  0.22639330    -0.85400
O1426       O  0.93275752  0.02725217  0.23732967    -0.82440
C1427       C  0.46550794  0.06205150  0.25358663     0.98060
O1428       O  0.50637219  0.07348967  0.24503604    -0.82480
O1429       O  0.57307157  0.04528413  0.24942989    -0.85120
C1430       C  0.57584417  0.00938956  0.25849847     1.02590
O1431       O  0.54785790  0.47013864  0.24354282    -0.77880
O1432       O  0.95615409  0.40342616  0.23216041    -0.78070
C1433       C  0.91688677  0.39783460  0.23559325     1.02540
O1434       O  0.90152607  0.47749060  0.16310569    -0.85400
O1435       O  0.99069842  0.06410886  0.17296800    -0.82460
C1436       C  0.53300724  0.09918385  0.17008121     0.98080
O1437       O  0.56600024  0.09579539  0.18535667    -0.82490
O1438       O  0.55814219  0.00578236  0.17600096    -0.85090
C1439       C  0.55400380  0.46507853  0.16604190     1.02560
O1440       O  0.51881989  0.42702839  0.17336725    -0.77910
O1441       O  0.94054282  0.43761238  0.16206532    -0.78060
C1442       C  0.90541677  0.44305510  0.15099868     1.02520
Cr1443     Cr  0.94904031  0.49405269  0.19979922     1.93740
Cr1444     Cr  0.52911638  0.04002779  0.20965672     1.93210
Cr1445     Cr  0.99712679  0.45745316  0.20318542     1.39100
O1446       O  0.98871801  0.49385770  0.22669279    -1.23150
C1447       C  0.79327099  0.19831633  0.12612540    -0.20360
C1448       C  0.82530486  0.19408996  0.10533128    -0.06920
C1449       C  0.84940653  0.22772779  0.07795679     0.13950
C1450       C  0.85098646  0.27061480  0.07988638    -0.20410
C1451       C  0.82554898  0.27812114  0.10614803    -0.06930
C1452       C  0.79341969  0.24055057  0.12721327     0.13940
C1453       C  0.76154822  0.24562703  0.15273061    -0.23760
H1454       H  0.77328459  0.17133848  0.14603198     0.15220
H1455       H  0.87272463  0.29856438  0.06184006     0.15250
C1456       C  0.87698125  0.21999420  0.04964864    -0.23710
H1457       H  0.74218060  0.21400379  0.16990028     0.05460
H1458       H  0.73695318  0.25198397  0.13565781     0.08690
H1459       H  0.78075578  0.27502308  0.17223423     0.08690
H1460       H  0.86624575  0.22456161  0.02055498     0.08670
H1461       H  0.87171529  0.18425173  0.05135729     0.08670
H1462       H  0.91326513  0.24473683  0.05456606     0.05450
C1463       C  0.97062279  0.21443628  0.22430544    -0.20360
C1464       C  0.95633266  0.22371196  0.18847532    -0.06920
C1465       C  0.98969752  0.26040062  0.16632287     0.13950
C1466       C  0.03437462  0.28046444  0.17982855    -0.20410
C1467       C  0.04588982  0.25222722  0.20233458    -0.06930
C1468       C  0.01665069  0.22967529  0.23158472     0.13940
C1469       C  0.03348128  0.21510337  0.26615674    -0.23760
H1470       H  0.94650160  0.19208856  0.24462854     0.15220
H1471       H  0.06011806  0.30835886  0.16382804     0.15250
C1472       C  0.98211293  0.27448258  0.12676964    -0.23710
H1473       H  0.00486191  0.19100023  0.28288331     0.05460
H1474       H  0.55623512  0.24600909  0.28323353     0.08690
H1475       H  0.55256384  0.19718966  0.25872746     0.08690
H1476       H  0.96371324  0.24360246  0.10838792     0.08670
H1477       H  0.01434708  0.29680737  0.11273549     0.08670
H1478       H  0.96460490  0.29533366  0.12765977     0.05450
C1479       C  0.75035060  0.99990650  0.18612977    -0.20360
C1480       C  0.71784677  0.01510588  0.18607571    -0.06920
C1481       C  0.73211242  0.06099668  0.19890975     0.13950
C1482       C  0.77805936  0.09034509  0.20603269    -0.20410
C1483       C  0.80953110  0.07844187  0.19315176    -0.06930
C1484       C  0.79631686  0.03189259  0.18678427     0.13940
C1485       C  0.82958580  0.01637897  0.17685969    -0.23760
H1486       H  0.74020764  0.46405335  0.18027266     0.15220
H1487       H  0.78960985  0.12630518  0.21294399     0.15250
C1488       C  0.70170735  0.08224063  0.20170036    -0.23710
H1489       H  0.82192999  0.00218211  0.14765796     0.05460
H1490       H  0.82723456  0.98911571  0.19700733     0.08690
H1491       H  0.86472931  0.04524578  0.17833099     0.08690
H1492       H  0.67906773  0.06621177  0.22525317     0.08670
H1493       H  0.68190213  0.07825527  0.17508648     0.08670
H1494       H  0.72074203  0.11986227  0.20794066     0.05450
C1495       C  0.70361166  0.26444938  0.30837590    -0.20360
C1496       C  0.72699453  0.29449241  0.33870896    -0.06920
C1497       C  0.77215824  0.32904854  0.33480182     0.13950
C1498       C  0.79253446  0.33294954  0.30090921    -0.20410
C1499       C  0.77064928  0.30129309  0.27126341    -0.06930
C1500       C  0.72518875  0.26723931  0.27458280     0.13940
C1501       C  0.69953361  0.23469532  0.24243074    -0.23760
H1502       H  0.66823045  0.23966177  0.31078610     0.15220
H1503       H  0.82767033  0.35878180  0.29924491     0.15250
C1504       C  0.80049630  0.36270293  0.36565271    -0.23710
H1505       H  0.66381722  0.21153627  0.24933502     0.05460
H1506       H  0.71468257  0.21261858  0.23599432     0.08690
H1507       H  0.70011286  0.25493569  0.21676756     0.08690
H1508       H  0.78351236  0.35586764  0.39295641     0.08670
H1509       H  0.80989455  0.39841284  0.35640597     0.08670
H1510       H  0.83202428  0.36080804  0.37059593     0.05450
C1511       C  0.69396173  0.45053809  0.35478710    -0.20360
C1512       C  0.64984578  0.44435782  0.35172154    -0.06920
C1513       C  0.61642774  0.41047381  0.37447656     0.13950
C1514       C  0.62712375  0.38076236  0.39627740    -0.20410
C1515       C  0.67120944  0.38668545  0.39775532    -0.06930
C1516       C  0.70579807  0.42657264  0.38121366     0.13940
C1517       C  0.75531996  0.44217030  0.38843633    -0.23760
H1518       H  0.72057851  0.97703951  0.33830096     0.15220
H1519       H  0.60036742  0.35163734  0.41027042     0.15250
C1520       C  0.57000361  0.40539443  0.37602816    -0.23710
H1521       H  0.77328888  0.47860380  0.39813809     0.05460
H1522       H  0.77076301  0.44070902  0.36176487     0.08690
H1523       H  0.76081682  0.42080811  0.41049337     0.08690
H1524       H  0.55220285  0.39439409  0.34806604     0.08670
H1525       H  0.57241938  0.43878440  0.38429860     0.08670
H1526       H  0.54934602  0.37890204  0.39711995     0.05450
C1527       C  0.56425476  0.23773699  0.39989520    -0.20360
C1528       C  0.59569724  0.22511104  0.41470625    -0.06920
C1529       C  0.58552349  0.17839261  0.41216276     0.13950
C1530       C  0.54920303  0.14828681  0.38861911    -0.20410
C1531       C  0.52307689  0.16421945  0.36814884    -0.06930
C1532       C  0.53031594  0.20966930  0.37453484     0.13940
C1533       C  0.00639565  0.23250265  0.35331319    -0.23760
H1534       H  0.57011382  0.27272451  0.40260349     0.15220
H1535       H  0.54200058  0.11277094  0.38548698     0.15250
C1536       C  0.61383856  0.16057254  0.43256785    -0.23710
H1537       H  0.03161374  0.26456713  0.33937392     0.05460
H1538       H  0.98829859  0.24242908  0.37319151     0.08690
H1539       H  0.98161535  0.21147264  0.33118298     0.08690
H1540       H  0.64066442  0.18750158  0.45089319     0.08670
H1541       H  0.62962842  0.14861130  0.41174504     0.08670
H1542       H  0.59226827  0.13095787  0.45080509     0.05450
C1543       C  0.92983848  0.39280303  0.03402310    -0.20360
C1544       C  0.93296644  0.43634693  0.53918272    -0.06920
C1545       C  0.91604211  0.45473845  0.50939724     0.13950
C1546       C  0.89395204  0.42749282  0.47804420    -0.20410
C1547       C  0.88662090  0.38260314  0.47603769    -0.06930
C1548       C  0.90908598  0.36695231  0.50154406     0.13940
C1549       C  0.91063044  0.32293766  0.99464211    -0.23760
H1550       H  0.94397905  0.37895248  0.05529429     0.15220
H1551       H  0.87714555  0.43892196  0.45707541     0.15250
C1552       C  0.91966448  0.50211167  0.50864372    -0.23710
H1553       H  0.93081223  0.31656026  0.01710525     0.05460
H1554       H  0.92675063  0.32548743  0.46732015     0.08690
H1555       H  0.87608445  0.29315781  0.99363585     0.08690
H1556       H  0.95484998  0.52847220  0.51336190     0.08670
H1557       H  0.89723315  0.50467197  0.02923003     0.08670
H1558       H  0.90919643  0.51049360  0.48066575     0.05450
C1559       C  0.95240148  0.08758910  0.09041420    -0.20360
C1560       C  0.48930193  0.08274304  0.57942001    -0.06920
C1561       C  0.51090996  0.10455802  0.54530315     0.13950
C1562       C  0.48958361  0.12119950  0.52047264    -0.20410
C1563       C  0.45438032  0.12788940  0.53202040    -0.06930
C1564       C  0.93607162  0.11187149  0.06769860     0.13940
C1565       C  0.89966397  0.12028556  0.08161233    -0.23760
H1566       H  0.93558045  0.07109181  0.11624760     0.15220
H1567       H  0.50497734  0.13580264  0.49358715     0.15250
C1568       C  0.55614649  0.11285402  0.53253892    -0.23710
H1569       H  0.88739011  0.10260363  0.10906479     0.05460
H1570       H  0.87082792  0.10692863  0.56076646     0.08690
H1571       H  0.91335092  0.15791422  0.08579129     0.08690
H1572       H  0.57567876  0.10343055  0.55256785     0.08670
H1573       H  0.57772085  0.15046998  0.52746109     0.08670
H1574       H  0.55190873  0.09510018  0.50526941     0.05450
C1575       C  0.61989791  0.55221836  0.50773819    -0.20360
C1576       C  0.66046531  0.06359030  0.52677051    -0.06920
C1577       C  0.66345666  0.06370119  0.06652225     0.13950
C1578       C  0.62384448  0.04627406  0.08653777    -0.20410
C1579       C  0.58199771  0.02510530  0.56687312    -0.06930
C1580       C  0.58013426  0.52811517  0.52658363     0.13940
C1581       C  0.53720280  0.50555787  0.50246184    -0.23760
H1582       H  0.61878869  0.55309943  0.47695578     0.15220
H1583       H  0.62537660  0.04729025  0.11718831     0.15250
C1584       C  0.70821977  0.07917685  0.08679742    -0.23710
H1585       H  0.54297168  0.51513877  0.47206177     0.05460
H1586       H  0.51336820  0.01652113  0.51194813     0.08690
H1587       H  0.52197368  0.46741718  0.50400270     0.08690
H1588       H  0.73162463  0.11554974  0.07905169     0.08670
H1589       H  0.72280602  0.55702037  0.07876815     0.08670
H1590       H  0.70515618  0.07704026  0.11784028     0.05450
C1591       C  0.54087997  0.00938991  0.58795737     0.03080
C1592       C  0.53390430  0.04458408  0.10138956    -0.13070
C1593       C  0.49228955  0.04227754  0.09434425     0.00580
C1594       C  0.95515460  0.49955141  0.08574799    -0.11600
C1595       C  0.96188332  0.46459939  0.57143175     0.03070
C1596       C  0.00405101  0.46703654  0.57792388    -0.11020
H1597       H  0.56284317  0.07729724  0.10866374     0.08670
H1598       H  0.92212076  0.49656871  0.08308146     0.06200
H1599       H  0.01108616  0.44144225  0.56587384     0.06040
C1600       C  0.70148785  0.29727967  0.87000968     0.03080
C1601       C  0.67163652  0.25892122  0.89036280    -0.13070
C1602       C  0.64275524  0.26315562  0.91561461     0.00580
C1603       C  0.65075201  0.30793440  0.92514334    -0.11600
C1604       C  0.67736782  0.34538626  0.90196465     0.03070
C1605       C  0.70118958  0.33856203  0.87385913    -0.11020
H1606       H  0.66681243  0.22540087  0.88224813     0.08670
H1607       H  0.62901079  0.31168581  0.94455969     0.06200
H1608       H  0.71730695  0.36434462  0.85214898     0.06040
C1609       C  0.84936501  0.17427950  0.62704843     0.03080
C1610       C  0.82785839  0.12824032  0.63794151    -0.13070
C1611       C  0.84406607  0.11464353  0.67018359     0.00580
C1612       C  0.88666919  0.14453498  0.68601680    -0.11600
C1613       C  0.91029935  0.19082035  0.67332247     0.03070
C1614       C  0.88867255  0.20550560  0.64657222    -0.11020
H1615       H  0.79454008  0.10535988  0.62605882     0.08670
H1616       H  0.89944857  0.13211473  0.70939866     0.06200
H1617       H  0.90015848  0.24184713  0.64279391     0.06040
C1618       C  0.79939810  0.27876175  0.92536185     0.03080
C1619       C  0.84036828  0.31792755  0.93345339    -0.13070
C1620       C  0.84333500  0.34942225  0.95954974     0.00580
C1621       C  0.80496021  0.34615439  0.47508906    -0.11600
C1622       C  0.76194452  0.31004112  0.46634673     0.03070
C1623       C  0.75924458  0.27398304  0.94241439    -0.11020
H1624       H  0.87130118  0.32303586  0.92141090     0.08670
H1625       H  0.80955262  0.37153874  0.49626269     0.06200
H1626       H  0.72733309  0.24318130  0.93741196     0.06040
C1627       C  0.85219077  0.27485454  0.77671577     0.03080
C1628       C  0.81058110  0.26164113  0.75810835    -0.13070
C1629       C  0.80088397  0.29618396  0.74541172     0.00580
C1630       C  0.83643263  0.33749872  0.73231643    -0.11600
C1631       C  0.88049056  0.35109098  0.74587682     0.03070
C1632       C  0.88828352  0.31971274  0.76915851    -0.11020
H1633       H  0.78250788  0.22818501  0.76463573     0.08670
H1634       H  0.82876729  0.36270527  0.71872519     0.06200
H1635       H  0.92108417  0.33096024  0.78273670     0.06040
C1636       C  0.79050363  0.36808729  0.59608651     0.03080
C1637       C  0.79254530  0.32746844  0.59345895    -0.13070
C1638       C  0.82895524  0.32386554  0.60795988     0.00580
C1639       C  0.86644084  0.36221385  0.62436080    -0.11600
C1640       C  0.86703063  0.40505351  0.62774674     0.03070
C1641       C  0.82825510  0.40771111  0.61307254    -0.11020
H1642       H  0.76546502  0.29754149  0.57929641     0.08670
H1643       H  0.89418902  0.35779594  0.63586007     0.06200
H1644       H  0.82734035  0.43986749  0.61498231     0.06040
C1645       C  0.72662592  0.05399830  0.94991756     0.03080
C1646       C  0.71131529  0.07416436  0.97568793    -0.13070
C1647       C  0.68687372  0.04869243  0.00609234     0.00580
C1648       C  0.67530032  0.50232396  0.51018644    -0.11600
C1649       C  0.68903538  0.48083358  0.48461272     0.03070
C1650       C  0.71691217  0.00742790  0.95507455    -0.11020
H1651       H  0.71743330  0.10936375  0.97179744     0.08670
H1652       H  0.65426248  0.48250754  0.53335498     0.06200
H1653       H  0.72988371  0.99201254  0.93610642     0.06040
C1654       C  0.54451073  0.14756538  0.65595014     0.03080
C1655       C  0.53719598  0.17470748  0.68174854    -0.13070
C1656       C  0.55948335  0.22369509  0.67937909     0.00580
C1657       C  0.58745013  0.24527753  0.64912610    -0.11600
C1658       C  0.58935843  0.22028740  0.61888573     0.03070
C1659       C  0.57157331  0.17125574  0.62394863    -0.11020
H1660       H  0.01464079  0.15698766  0.70448381     0.08670
H1661       H  0.60536697  0.28266248  0.64751276     0.06200
H1662       H  0.57880667  0.15237239  0.60344472     0.06040
C1663       C  0.59403562  0.46215049  0.65288511     0.03080
C1664       C  0.63380593  0.48550293  0.67488944    -0.13070
C1665       C  0.67371734  0.48591853  0.66541802     0.00580
C1666       C  0.67230901  0.45881387  0.63452994    -0.11600
C1667       C  0.63198638  0.42934778  0.61523242     0.03070
C1668       C  0.59243426  0.43174586  0.62413223    -0.11020
H1669       H  0.63245935  0.50171004  0.70049193     0.08670
H1670       H  0.70291717  0.45994055  0.62556594     0.06200
H1671       H  0.56087383  0.41033664  0.60896325     0.06040
O1672       O  0.60612337  0.28609834  0.57604490    -0.85400
O1673       O  0.59484924  0.36658688  0.57164164    -0.82440
C1674       C  0.63239741  0.39694628  0.58601805     0.98060
O1675       O  0.67081845  0.40022767  0.57486307    -0.82480
O1676       O  0.75481145  0.40583643  0.56348796    -0.85120
C1677       C  0.75062540  0.36749250  0.57605134     1.02590
O1678       O  0.71434463  0.32704216  0.56734216    -0.77880
O1679       O  0.63444852  0.23806876  0.56328622    -0.78070
C1680       C  0.61060974  0.24871146  0.58388486     1.02540
O1681       O  0.56951619  0.31070870  0.50626968    -0.85250
O1682       O  0.63951528  0.40403107  0.50576930    -0.82460
C1683       C  0.67918434  0.43364898  0.49510351     0.98080
O1684       O  0.71197750  0.42607054  0.50099139    -0.82490
O1685       O  0.73396917  0.35427504  0.49776284    -0.85090
C1686       C  0.72488016  0.31367813  0.48635257     1.02560
O1687       O  0.68748279  0.27888881  0.49526318    -0.77910
O1688       O  0.59008730  0.25654493  0.50254802    -0.78060
C1689       C  0.56059566  0.27060293  0.49637791     1.02520
Cr1690     Cr  0.62338291  0.34636435  0.53853514     1.93740
Cr1691     Cr  0.70164441  0.37443960  0.53465647     1.93210
Cr1692     Cr  0.65114579  0.29133033  0.53300045     1.39100
O1693       O  0.65621291  0.33763752  0.51228362    -1.23150
C1694       C  0.94124706  0.19419912  0.95072977     0.03080
C1695       C  0.92722666  0.15936171  0.97872775    -0.13070
C1696       C  0.45271331  0.16636034  0.01245844     0.00580
C1697       C  0.49202043  0.20784059  0.51847860    -0.11600
C1698       C  0.51237756  0.23695208  0.48834308     0.03070
C1699       C  0.48522166  0.23359446  0.95549224    -0.11020
H1700       H  0.89710813  0.12642409  0.97416486     0.08670
H1701       H  0.51169362  0.21215159  0.54466232     0.06200
H1702       H  0.49837402  0.26040166  0.93425022     0.06040
C1703       C  0.61256208  0.01430530  0.78559100     0.03080
C1704       C  0.61119375  0.97526970  0.80413709    -0.13070
C1705       C  0.64495604  0.98151848  0.83151006     0.00580
C1706       C  0.67977092  0.02575816  0.83860382    -0.11600
C1707       C  0.68623541  0.06301199  0.81639990     0.03070
C1708       C  0.65057056  0.05870313  0.79225900    -0.11020
H1709       H  0.58441691  0.44093100  0.79730200     0.08670
H1710       H  0.70393850  0.03084257  0.86141218     0.06200
H1711       H  0.65313647  0.08909827  0.77783993     0.06040
C1712       C  0.95733097  0.08790548  0.78435166     0.03080
C1713       C  0.91620520  0.08994782  0.78802611    -0.13070
C1714       C  0.91139437  0.11337243  0.81968380     0.00580
C1715       C  0.94447537  0.12874781  0.84815505    -0.11600
C1716       C  0.98603178  0.13251380  0.84281875     0.03070
C1717       C  0.99241644  0.11099748  0.81173208    -0.11020
H1718       H  0.88917856  0.07422420  0.76684175     0.08670
H1719       H  0.94011275  0.14333608  0.87373434     0.06200
H1720       H  0.02497889  0.11309674  0.80864210     0.06040
O1721       O  0.74287968  0.11322817  0.90410616    -0.85400
O1722       O  0.76824919  0.20614514  0.89307607    -0.82440
C1723       C  0.80284877  0.24369232  0.90161640     0.98060
O1724       O  0.84181045  0.25116013  0.89067039    -0.82480
O1725       O  0.90852417  0.22176884  0.90133710    -0.85120
C1726       C  0.90895849  0.18725812  0.91785693     1.02590
O1727       O  0.87925873  0.14581327  0.90782011    -0.77880
O1728       O  0.78698192  0.08089877  0.90812785    -0.78070
C1729       C  0.75303424  0.08338815  0.91882954     1.02540
O1730       O  0.72557712  0.14157682  0.83376410    -0.85400
O1731       O  0.81336369  0.21306398  0.82170967    -0.82460
C1732       C  0.85258725  0.24576881  0.80964685     0.98080
O1733       O  0.88988215  0.25471633  0.82709479    -0.82490
O1734       O  0.88059828  0.16396910  0.83401166    -0.85090
C1735       C  0.87307412  0.12082728  0.82953626     1.02560
O1736       O  0.83948668  0.08656728  0.84433167    -0.77910
O1737       O  0.76445291  0.10104500  0.83430559    -0.78060
C1738       C  0.72832781  0.10556634  0.82566458     1.02520
Cr1739     Cr  0.77754087  0.16137517  0.86415534     1.93740
Cr1740     Cr  0.85902950  0.20810121  0.86284862     1.93210
Cr1741     Cr  0.82478849  0.12600021  0.87036939     1.39100
O1742       O  0.82150631  0.16835805  0.88848691    -1.23150
O1743       O  0.90807884  0.43089323  0.72639308    -0.85400
O1744       O  0.93275760  0.02725247  0.73732948    -0.82440
C1745       C  0.46550777  0.06205128  0.75358676     0.98060
O1746       O  0.50637203  0.07348945  0.74503623    -0.82480
O1747       O  0.57307143  0.04528392  0.74943017    -0.85120
C1748       C  0.57584408  0.00938935  0.75849869     1.02590
O1749       O  0.54785799  0.47013875  0.74354298    -0.77880
O1750       O  0.95615405  0.40342574  0.73216027    -0.78070
C1751       C  0.91688674  0.39783422  0.73559303     1.02540
O1752       O  0.90152638  0.47749043  0.66310551    -0.85400
O1753       O  0.99069867  0.06410915  0.67296786    -0.82460
C1754       C  0.53300726  0.09918370  0.67008142     0.98080
O1755       O  0.56600021  0.09579523  0.68535697    -0.82490
O1756       O  0.55814223  0.00578226  0.67600125    -0.85090
C1757       C  0.55400462  0.46507895  0.66604214     1.02560
O1758       O  0.51882062  0.42702879  0.67336727    -0.77910
O1759       O  0.94054310  0.43761219  0.66206521    -0.78060
C1760       C  0.90541710  0.44305495  0.65099851     1.02520
Cr1761     Cr  0.94904045  0.49405236  0.69979915     1.93740
Cr1762     Cr  0.52911631  0.04002762  0.70965695     1.93210
Cr1763     Cr  0.99712691  0.45745282  0.70318543     1.39100
O1764       O  0.98871802  0.49385726  0.72669283    -1.23150
C1765       C  0.79327157  0.19831621  0.62612519    -0.20360
C1766       C  0.82530556  0.19408998  0.60533112    -0.06920
C1767       C  0.84940726  0.22772791  0.57795670     0.13950
C1768       C  0.85098704  0.27061484  0.57988630    -0.20410
C1769       C  0.82554939  0.27812102  0.60614788    -0.06930
C1770       C  0.79342014  0.24055038  0.62721308     0.13940
C1771       C  0.76154861  0.24562671  0.65273045    -0.23760
H1772       H  0.77328518  0.17133831  0.64603174     0.15220
H1773       H  0.87272525  0.29856450  0.56184006     0.15250
C1774       C  0.87698220  0.21999452  0.54964863    -0.23710
H1775       H  0.74218107  0.21400344  0.66990012     0.05460
H1776       H  0.73695350  0.25198357  0.63565768     0.08690
H1777       H  0.78075611  0.27502276  0.67223408     0.08690
H1778       H  0.86624679  0.22456196  0.52055494     0.08670
H1779       H  0.87171636  0.18425210  0.55135725     0.08670
H1780       H  0.91326604  0.24473724  0.55456616     0.05450
C1781       C  0.97062338  0.21443626  0.72430537    -0.20360
C1782       C  0.95633325  0.22371187  0.68847522    -0.06920
C1783       C  0.98969810  0.26040057  0.66632278     0.13950
C1784       C  0.03437517  0.28046463  0.67982858    -0.20410
C1785       C  0.04589047  0.25222748  0.70233462    -0.06930
C1786       C  0.01665132  0.22967550  0.73158474     0.13940
C1787       C  0.03348196  0.21510372  0.76615681    -0.23760
H1788       H  0.94650220  0.19208849  0.74462845     0.15220
H1789       H  0.06011859  0.30835912  0.66382811     0.15250
C1790       C  0.98211360  0.27448228  0.62676942    -0.23710
H1791       H  0.00486262  0.19100055  0.78288339     0.05460
H1792       H  0.55623496  0.24600888  0.78323385     0.08690
H1793       H  0.55256387  0.19718955  0.75872779     0.08690
H1794       H  0.96371395  0.24360204  0.60838782     0.08670
H1795       H  0.01434779  0.29680695  0.61273528     0.08670
H1796       H  0.96460556  0.29533337  0.62765931     0.05450
C1797       C  0.75035082  0.99990660  0.68612991    -0.20360
C1798       C  0.71784704  0.01510605  0.68607581    -0.06920
C1799       C  0.73211279  0.06099691  0.69890973     0.13950
C1800       C  0.77805977  0.09034533  0.70603251    -0.20410
C1801       C  0.80953144  0.07844196  0.69315168    -0.06930
C1802       C  0.79631710  0.03189263  0.68678433     0.13940
C1803       C  0.82958596  0.01637885  0.67685984    -0.23760
H1804       H  0.74020891  0.46405377  0.68027252     0.15220
H1805       H  0.78961031  0.12630546  0.71294369     0.15250
C1806       C  0.70170774  0.08224087  0.70170040    -0.23710
H1807       H  0.82193008  0.00218185  0.64765816     0.05460
H1808       H  0.82723469  0.98911567  0.69700757     0.08690
H1809       H  0.86472950  0.04524562  0.67833106     0.08690
H1810       H  0.67906822  0.06621209  0.72525330     0.08670
H1811       H  0.68190242  0.07825543  0.67508657     0.08670
H1812       H  0.72074245  0.11986254  0.70794062     0.05450
C1813       C  0.70361142  0.26444959  0.80837559    -0.20360
C1814       C  0.72699429  0.29449255  0.83870869    -0.06920
C1815       C  0.77215804  0.32904862  0.83480160     0.13950
C1816       C  0.79253430  0.33294960  0.80090902    -0.20410
C1817       C  0.77064912  0.30129317  0.77126320    -0.06930
C1818       C  0.72518854  0.26723949  0.77458252     0.13940
C1819       C  0.69953343  0.23469555  0.74243043    -0.23760
H1820       H  0.66823019  0.23966204  0.81078575     0.15220
H1821       H  0.82767021  0.35878178  0.79924476     0.15250
C1822       C  0.80049611  0.36270290  0.86565255    -0.23710
H1823       H  0.66381701  0.21153654  0.74933466     0.05460
H1824       H  0.71468235  0.21261877  0.73599403     0.08690
H1825       H  0.70011277  0.25493596  0.71676725     0.08690
H1826       H  0.78351213  0.35586760  0.89295624     0.08670
H1827       H  0.80989446  0.39841285  0.85640587     0.08670
H1828       H  0.83202402  0.36080790  0.87059579     0.05450
C1829       C  0.69396163  0.45053838  0.85478748    -0.20360
C1830       C  0.64984567  0.44435809  0.85172201    -0.06920
C1831       C  0.61642766  0.41047402  0.87447701     0.13950
C1832       C  0.62712369  0.38076248  0.89627769    -0.20410
C1833       C  0.67120936  0.38668553  0.89775546    -0.06930
C1834       C  0.70579799  0.42657278  0.88121386     0.13940
C1835       C  0.75531989  0.44217030  0.88843634    -0.23760
H1836       H  0.72057881  0.97703936  0.83830074     0.15220
H1837       H  0.60036737  0.35163741  0.91027067     0.15250
C1838       C  0.57000355  0.40539467  0.87602875    -0.23710
H1839       H  0.77328896  0.47860379  0.89813812     0.05460
H1840       H  0.77076278  0.44070901  0.86176479     0.08690
H1841       H  0.76081678  0.42080803  0.91049328     0.08690
H1842       H  0.55220273  0.39439444  0.84806664     0.08670
H1843       H  0.57241937  0.43878461  0.88429933     0.08670
H1844       H  0.54934599  0.37890220  0.89712051     0.05450
C1845       C  0.56425461  0.23773696  0.89989510    -0.20360
C1846       C  0.59569712  0.22511104  0.91470613    -0.06920
C1847       C  0.58552338  0.17839261  0.91216270     0.13950
C1848       C  0.54920285  0.14828675  0.88861915    -0.20410
C1849       C  0.52307666  0.16421932  0.86814889    -0.06930
C1850       C  0.53031571  0.20966919  0.87453482     0.13940
C1851       C  0.00639575  0.23250253  0.85331328    -0.23760
H1852       H  0.57011370  0.27272451  0.90260331     0.15220
H1853       H  0.54200041  0.11277087  0.88548705     0.15250
C1854       C  0.61383853  0.16057261  0.93256775    -0.23710
H1855       H  0.03161393  0.26456705  0.83937412     0.05460
H1856       H  0.98829860  0.24242891  0.87319155     0.08690
H1857       H  0.98161555  0.21147261  0.83118297     0.08690
H1858       H  0.64066445  0.18750170  0.95089301     0.08670
H1859       H  0.62962834  0.14861135  0.91174491     0.08670
H1860       H  0.59226833  0.13095798  0.95080506     0.05450
C1861       C  0.92983879  0.39280325  0.53402294    -0.20360
C1862       C  0.93296610  0.43634669  0.03918292    -0.06920
C1863       C  0.91604174  0.45473822  0.00939746     0.13950
C1864       C  0.89395186  0.42749270  0.97804432    -0.20410
C1865       C  0.88662075  0.38260303  0.97603776    -0.06930
C1866       C  0.90908575  0.36695215  0.00154418     0.13940
C1867       C  0.91063066  0.32293781  0.49464201    -0.23760
H1868       H  0.94397938  0.37895272  0.55529413     0.15220
H1869       H  0.87714541  0.43892187  0.95707552     0.15250
C1870       C  0.91966380  0.50211130  0.00864410    -0.23710
H1871       H  0.93081255  0.31656048  0.51710509     0.05460
H1872       H  0.92675051  0.32548733  0.96732030     0.08690
H1873       H  0.87608468  0.29315794  0.49363584     0.08690
H1874       H  0.95484921  0.52847198  0.01336244     0.08670
H1875       H  0.89723405  0.50467269  0.52922966     0.08670
H1876       H  0.90919579  0.51049331  0.98066615     0.05450
C1877       C  0.95240197  0.08758892  0.59041404    -0.20360
C1878       C  0.48930154  0.08274305  0.07941995    -0.06920
C1879       C  0.51090952  0.10455811  0.04530311     0.13950
C1880       C  0.48958313  0.12119965  0.02047270    -0.20410
C1881       C  0.45437993  0.12788962  0.03202060    -0.06930
C1882       C  0.93607209  0.11187130  0.56769845     0.13940
C1883       C  0.89966440  0.12028531  0.58161218    -0.23760
H1884       H  0.93558092  0.07109158  0.61624741     0.15220
H1885       H  0.50497679  0.13580278  0.99358719     0.15250
C1886       C  0.55614601  0.11285409  0.03253878    -0.23710
H1887       H  0.88739049  0.10260330  0.60906462     0.05460
H1888       H  0.87082745  0.10692881  0.06076664     0.08690
H1889       H  0.91335135  0.15791395  0.58579122     0.08690
H1890       H  0.57567827  0.10343051  0.05256762     0.08670
H1891       H  0.57772040  0.15047007  0.02746102     0.08670
H1892       H  0.55190819  0.09510035  0.00526920     0.05450
C1893       C  0.61989510  0.55221639  0.00773728    -0.20360
C1894       C  0.66046517  0.06359015  0.02677038    -0.06920
C1895       C  0.66345696  0.06370141  0.56652238     0.13950
C1896       C  0.62384485  0.04627415  0.58653800    -0.20410
C1897       C  0.58199740  0.02510535  0.06687279    -0.06930
C1898       C  0.58013178  0.52811357  0.02658323     0.13940
C1899       C  0.53719991  0.50555625  0.00246197    -0.23760
H1900       H  0.61878542  0.55309692  0.97695486     0.15220
H1901       H  0.62537707  0.04729040  0.61718853     0.15250
C1902       C  0.70822016  0.07917726  0.58679743    -0.23710
H1903       H  0.54296833  0.51513662  0.97206178     0.05460
H1904       H  0.51336815  0.01652140  0.01194766     0.08690
H1905       H  0.52197051  0.46741554  0.00400320     0.08690
H1906       H  0.73162489  0.11555016  0.57905163     0.08670
H1907       H  0.72280756  0.55702042  0.57876965     0.08670
H1908       H  0.70515669  0.07704072  0.61784031     0.05450
C1909       C  0.54086815  0.50937975  0.08795162     0.03080
C1910       C  0.53389281  0.54457164  0.60138946    -0.13070
C1911       C  0.49227933  0.54226758  0.59434210     0.00580
C1912       C  0.95516607  0.99955909  0.58575769    -0.11600
C1913       C  0.96189281  0.96460472  0.07144522     0.03070
C1914       C  0.00406186  0.96704431  0.07793520    -0.11020
H1915       H  0.56283101  0.57728328  0.60866870     0.08670
H1916       H  0.92213158  0.99657495  0.58309350     0.06200
H1917       H  0.01109660  0.94144869  0.06588726     0.06040
C1918       C  0.70149574  0.79728008  0.37002598     0.03080
C1919       C  0.67163860  0.75892207  0.39037598    -0.13070
C1920       C  0.64275348  0.76315802  0.41562231     0.00580
C1921       C  0.65075142  0.80793759  0.42514991    -0.11600
C1922       C  0.67737301  0.84538950  0.40197327     0.03070
C1923       C  0.70119975  0.83856377  0.37387307    -0.11020
H1924       H  0.66681316  0.72540115  0.38226154     0.08670
H1925       H  0.62900708  0.81168985  0.44456215     0.06200
H1926       H  0.71732041  0.86434480  0.35216272     0.06040
C1927       C  0.84934588  0.67426536  0.12703454     0.03080
C1928       C  0.82784059  0.62822673  0.13792959    -0.13070
C1929       C  0.84405529  0.61463098  0.17016805     0.00580
C1930       C  0.88666135  0.64452254  0.18599518    -0.11600
C1931       C  0.91028803  0.69080720  0.17329968     0.03070
C1932       C  0.88865832  0.70549172  0.14655216    -0.11020
H1933       H  0.79451942  0.60534645  0.12605241     0.08670
H1934       H  0.89944541  0.63210396  0.20937500     0.06200
H1935       H  0.90014628  0.74183367  0.14277239     0.06040
C1936       C  0.79940498  0.77875946  0.42537301     0.03080
C1937       C  0.84037661  0.81792002  0.43347271    -0.13070
C1938       C  0.84334193  0.84941200  0.45957128     0.00580
C1939       C  0.80496613  0.84614470  0.97510786    -0.11600
C1940       C  0.76195017  0.81003714  0.96635727     0.03070
C1941       C  0.75925019  0.77398189  0.44242182    -0.11020
H1942       H  0.87131039  0.82302729  0.42143278     0.08670
H1943       H  0.80955660  0.87152618  0.99628361     0.06200
H1944       H  0.72733767  0.74318347  0.43741349     0.06040
C1945       C  0.85219245  0.77485511  0.27671821     0.03080
C1946       C  0.81058250  0.76164295  0.25811203    -0.13070
C1947       C  0.80088489  0.79618733  0.24542137     0.00580
C1948       C  0.83643258  0.83750306  0.23232646    -0.11600
C1949       C  0.88049185  0.85109271  0.24588159     0.03070
C1950       C  0.88828559  0.81971300  0.26916062    -0.11020
H1951       H  0.78250954  0.72818619  0.26463834     0.08670
H1952       H  0.82876654  0.86271101  0.21873895     0.06200
H1953       H  0.92108707  0.83095910  0.28273668     0.06040
C1954       C  0.79050324  0.86808618  0.09608924     0.03080
C1955       C  0.79254329  0.82746643  0.09346226    -0.13070
C1956       C  0.82895279  0.82386231  0.10796241     0.00580
C1957       C  0.86643913  0.86221015  0.12436346    -0.11600
C1958       C  0.86703009  0.90505070  0.12774926     0.03070
C1959       C  0.82825530  0.90770950  0.11307494    -0.11020
H1960       H  0.76546175  0.79753929  0.07930089     0.08670
H1961       H  0.89418685  0.85779146  0.13586269     0.06200
H1962       H  0.82734148  0.93986646  0.11498454     0.06040
C1963       C  0.72662763  0.55400097  0.44992190     0.03080
C1964       C  0.71131670  0.57416661  0.47569255    -0.13070
C1965       C  0.68687341  0.54869360  0.50609609     0.00580
C1966       C  0.67530128  0.00232311  0.01018387    -0.11600
C1967       C  0.68903628  0.98083217  0.98461062     0.03070
C1968       C  0.71691254  0.50743004  0.45507759    -0.11020
H1969       H  0.71743517  0.60936624  0.47180255     0.08670
H1970       H  0.65426455  0.98250760  0.03335323     0.06200
H1971       H  0.72988362  0.49201500  0.43610929     0.06040
C1972       C  0.54450945  0.64756488  0.15594830     0.03080
C1973       C  0.53719028  0.67470647  0.18174398    -0.13070
C1974       C  0.55947829  0.72369420  0.17937470     0.00580
C1975       C  0.58745166  0.74527694  0.14912584    -0.11600
C1976       C  0.58936128  0.72028712  0.11888604     0.03070
C1977       C  0.57157551  0.67125533  0.12394876    -0.11020
H1978       H  0.01463036  0.65698616  0.20447663     0.08670
H1979       H  0.60536941  0.78266202  0.14751347     0.06200
H1980       H  0.57881097  0.65237151  0.10344681     0.06040
C1981       C  0.59403723  0.96215184  0.15288427     0.03080
C1982       C  0.63380845  0.98550733  0.17488699    -0.13070
C1983       C  0.67372052  0.98592485  0.16541475     0.00580
C1984       C  0.67231217  0.95881875  0.13452768    -0.11600
C1985       C  0.63198903  0.92934999  0.11523172     0.03070
C1986       C  0.59243620  0.93174640  0.12413226    -0.11020
H1987       H  0.63246228  0.00171536  0.20048910     0.08670
H1988       H  0.70292066  0.95994636  0.12556343     0.06200
H1989       H  0.56087541  0.91033511  0.10896455     0.06040
O1990       O  0.60612586  0.78609830  0.07604580    -0.85400
O1991       O  0.59485177  0.86658718  0.07164235    -0.82440
C1992       C  0.63239996  0.89694751  0.08601806     0.98060
O1993       O  0.67082091  0.90022904  0.07486280    -0.82480
O1994       O  0.75481337  0.90583671  0.06348911    -0.85120
C1995       C  0.75062603  0.86749253  0.07605338     1.02590
O1996       O  0.71434504  0.82704242  0.06734420    -0.77880
O1997       O  0.63445082  0.73806863  0.06328673    -0.78070
C1998       C  0.61061241  0.74871143  0.08388553     1.02540
O1999       O  0.56951792  0.81070787  0.00627059    -0.85250
O2000       O  0.63951726  0.90403032  0.00576920    -0.82460
C2001       C  0.67918611  0.93364810  0.99510277     0.98080
O2002       O  0.71197963  0.92607016  0.00099100    -0.82490
O2003       O  0.73397269  0.85427438  0.99776504    -0.85090
C2004       C  0.72488390  0.81367674  0.98635692     1.02560
O2005       O  0.68748550  0.77888817  0.99526619    -0.77910
O2006       O  0.59008931  0.75654440  0.00254839    -0.78060
C2007       C  0.56059753  0.77060224  0.99637832     1.02520
Cr2008     Cr  0.62338515  0.84636411  0.03853575     1.93740
Cr2009     Cr  0.70164681  0.87443988  0.03465709     1.93210
Cr2010     Cr  0.65114740  0.79133015  0.03300150     1.39100
O2011       O  0.65621522  0.83763727  0.01228426    -1.23150
C2012       C  0.94124937  0.69419808  0.45072883     0.03080
C2013       C  0.92722866  0.65936069  0.47872666    -0.13070
C2014       C  0.45271540  0.66635848  0.51245631     0.00580
C2015       C  0.49202150  0.70783941  0.01847752    -0.11600
C2016       C  0.51237942  0.73695133  0.98834246     0.03070
C2017       C  0.48522412  0.73359386  0.45549146    -0.11020
H2018       H  0.89711034  0.62642294  0.47416353     0.08670
H2019       H  0.51169386  0.71215032  0.04466172     0.06200
H2020       H  0.49837649  0.76040146  0.43424979     0.06040
C2021       C  0.61255922  0.51430740  0.28559376     0.03080
C2022       C  0.61118953  0.47527220  0.30414178    -0.13070
C2023       C  0.64494933  0.48152163  0.33151769     0.00580
C2024       C  0.67976284  0.52576159  0.33861296    -0.11600
C2025       C  0.68623057  0.56301441  0.31640628     0.03070
C2026       C  0.65056775  0.55870533  0.29226235    -0.11020
H2027       H  0.58441998  0.94092877  0.29729792     0.08670
H2028       H  0.70392865  0.53084623  0.36142287     0.06200
H2029       H  0.65313567  0.58909999  0.27784094     0.06040
C2030       C  0.95733008  0.58790841  0.28434898     0.03080
C2031       C  0.91620286  0.58994761  0.28802484    -0.13070
C2032       C  0.91139278  0.61337421  0.31968147     0.00580
C2033       C  0.94447684  0.62875587  0.34815016    -0.11600
C2034       C  0.98603358  0.63252357  0.34281272     0.03070
C2035       C  0.99241751  0.61100544  0.31172694    -0.11020
H2036       H  0.88917461  0.57422026  0.26684226     0.08670
H2037       H  0.94011518  0.64334561  0.37372890     0.06200
H2038       H  0.02498040  0.61310600  0.30863629     0.06040
O2039       O  0.74288173  0.61323093  0.40411045    -0.85400
O2040       O  0.76825328  0.70614758  0.39308053    -0.82440
C2041       C  0.80285380  0.74369328  0.40162229     0.98060
O2042       O  0.84181469  0.75116117  0.39067445    -0.82480
O2043       O  0.90852632  0.72176826  0.40133712    -0.85120
C2044       C  0.90896042  0.68725730  0.41785641     1.02590
O2045       O  0.87925988  0.64581260  0.40781975    -0.77880
O2046       O  0.78698257  0.58089975  0.40813083    -0.78070
C2047       C  0.75303599  0.58339061  0.41883370     1.02540
O2048       O  0.72557729  0.64157980  0.33376875    -0.85400
O2049       O  0.81336484  0.71306513  0.32171242    -0.82460
C2050       C  0.85258858  0.74576943  0.30964927     0.98080
O2051       O  0.88988349  0.75471678  0.32709698    -0.82490
O2052       O  0.88059606  0.66396883  0.33401143    -0.85090
C2053       C  0.87307184  0.62082717  0.32953540     1.02560
O2054       O  0.83948498  0.58656681  0.34433142    -0.77910
O2055       O  0.76444935  0.60104427  0.33430970    -0.78060
C2056       C  0.72832513  0.60556768  0.32566946     1.02520
Cr2057     Cr  0.77754217  0.66137687  0.36415858     1.93740
Cr2058     Cr  0.85903056  0.70810169  0.36285043     1.93210
Cr2059     Cr  0.82478781  0.62599981  0.37037082     1.39100
O2060       O  0.82150777  0.66835855  0.38848898    -1.23150
O2061       O  0.90808080  0.93089389  0.22639533    -0.85400
O2062       O  0.93275613  0.52725308  0.23732851    -0.82440
C2063       C  0.46550661  0.56205276  0.25358512     0.98060
O2064       O  0.50637080  0.57349066  0.24503458    -0.82480
O2065       O  0.57307012  0.54528532  0.24942969    -0.85120
C2066       C  0.57584256  0.50939092  0.25849921     1.02590
O2067       O  0.54785911  0.97013746  0.24354232    -0.77880
O2068       O  0.95615517  0.90342520  0.23216160    -0.78070
C2069       C  0.91688834  0.89783479  0.23559564     1.02540
O2070       O  0.90152684  0.97748860  0.16310707    -0.85400
O2071       O  0.99069707  0.56410920  0.17296683    -0.82460
C2072       C  0.53300598  0.59918370  0.17008019     0.98080
O2073       O  0.56599901  0.59579529  0.18535562    -0.82490
O2074       O  0.55814105  0.50578231  0.17600076    -0.85090
C2075       C  0.55400566  0.96507891  0.16604199     1.02560
O2076       O  0.51882190  0.92702830  0.17336717    -0.77910
O2077       O  0.94054314  0.93760998  0.16206685    -0.78060
C2078       C  0.90541697  0.94305249  0.15100054     1.02520
Cr2079     Cr  0.94904175  0.99405203  0.19980032     1.93740
Cr2080     Cr  0.52911509  0.54002817  0.20965601     1.93210
Cr2081     Cr  0.99712789  0.95745188  0.20318601     1.39100
O2082       O  0.98871952  0.99385681  0.22669351    -1.23150
C2083       C  0.79325939  0.69831035  0.12612666    -0.20360
C2084       C  0.82528323  0.69407694  0.10532366    -0.06920
C2085       C  0.84938016  0.72771207  0.07794599     0.13950
C2086       C  0.85096814  0.77060282  0.07987966    -0.20410
C2087       C  0.82554348  0.77811605  0.10614993    -0.06930
C2088       C  0.79341662  0.74054860  0.12721933     0.13940
C2089       C  0.76155587  0.74563220  0.15274447    -0.23760
H2090       H  0.77327576  0.67133437  0.14603563     0.15220
H2091       H  0.87270262  0.79854995  0.06182979     0.15250
C2092       C  0.87694431  0.71997151  0.04963148    -0.23710
H2093       H  0.74218885  0.71401038  0.16991586     0.05460
H2094       H  0.73696034  0.75199433  0.13567756     0.08690
H2095       H  0.78077240  0.77502794  0.17224621     0.08690
H2096       H  0.86620143  0.72453654  0.02053992     0.08670
H2097       H  0.87167618  0.68422799  0.05134091     0.08670
H2098       H  0.91323005  0.74471164  0.05454230     0.05450
C2099       C  0.97060707  0.71443262  0.22428614    -0.20360
C2100       C  0.95631993  0.72370088  0.18845209    -0.06920
C2101       C  0.98968457  0.76038566  0.16629741     0.13950
C2102       C  0.03436033  0.78045619  0.17980715    -0.20410
C2103       C  0.04587685  0.75222582  0.20232173    -0.06930
C2104       C  0.01663456  0.72967528  0.23157035     0.13940
C2105       C  0.03346132  0.71510579  0.26614605    -0.23760
H2106       H  0.94648390  0.69208621  0.24460859     0.15220
H2107       H  0.06010352  0.80834806  0.16380445     0.15250
C2108       C  0.98210118  0.77445406  0.12673850    -0.23710
H2109       H  0.00483966  0.69100210  0.28287058     0.05460
H2110       H  0.55621211  0.74601265  0.28322289     0.08690
H2111       H  0.55254641  0.69719302  0.25872165     0.08690
H2112       H  0.96370067  0.74356768  0.10836347     0.08670
H2113       H  0.01433606  0.79677276  0.11270320     0.08670
H2114       H  0.96459353  0.79530625  0.12761867     0.05450
C2115       C  0.75034530  0.49989648  0.18613071    -0.20360
C2116       C  0.71784245  0.51509700  0.18607882    -0.06920
C2117       C  0.73211042  0.56098866  0.19891163     0.13950
C2118       C  0.77805836  0.59033730  0.20602853    -0.20410
C2119       C  0.80952661  0.57843243  0.19314213    -0.06930
C2120       C  0.79631132  0.53188241  0.18677778     0.13940
C2121       C  0.82957763  0.51636764  0.17684766    -0.23760
H2122       H  0.74021449  0.96406412  0.18027012     0.15220
H2123       H  0.78961046  0.62629812  0.21293827     0.15250
C2124       C  0.70170609  0.58223254  0.20170747    -0.23710
H2125       H  0.82191516  0.50216815  0.14764681     0.05460
H2126       H  0.82723071  0.48910626  0.19699547     0.08690
H2127       H  0.86472129  0.54523450  0.17831348     0.08690
H2128       H  0.67906859  0.56620141  0.22526117     0.08670
H2129       H  0.68189882  0.57824917  0.17509512     0.08670
H2130       H  0.72074130  0.61985368  0.20794970     0.05450
C2131       C  0.70361741  0.76445022  0.30839198    -0.20360
C2132       C  0.72700210  0.79449045  0.33872615    -0.06920
C2133       C  0.77216672  0.82904466  0.33481953     0.13950
C2134       C  0.79254207  0.83294623  0.30092633    -0.20410
C2135       C  0.77065368  0.80129423  0.27127826    -0.06930
C2136       C  0.72519268  0.76724204  0.27459758     0.13940
C2137       C  0.69953499  0.73470197  0.24244397    -0.23760
H2138       H  0.66823564  0.73966441  0.31080189     0.15220
H2139       H  0.82767866  0.85877649  0.29926208     0.15250
C2140       C  0.80050547  0.86269819  0.36567073    -0.23710
H2141       H  0.66381839  0.71154426  0.24934842     0.05460
H2142       H  0.71468134  0.71262375  0.23600444     0.08690
H2143       H  0.70011513  0.75494547  0.21678262     0.08690
H2144       H  0.78352098  0.85586378  0.39297407     0.08670
H2145       H  0.80990518  0.89840858  0.35642426     0.08670
H2146       H  0.83203249  0.86080152  0.37061435     0.05450
C2147       C  0.69396601  0.95053325  0.35478083    -0.20360
C2148       C  0.64985072  0.94435471  0.35171535    -0.06920
C2149       C  0.61643335  0.91047524  0.37447375     0.13950
C2150       C  0.62712931  0.88076656  0.39627863    -0.20410
C2151       C  0.67121473  0.88668873  0.39775771    -0.06930
C2152       C  0.70580302  0.92657311  0.38121221     0.13940
C2153       C  0.75532532  0.94217390  0.38843720    -0.23760
H2154       H  0.72057469  0.47704750  0.33830971     0.15220
H2155       H  0.60037304  0.85164482  0.41027470     0.15250
C2156       C  0.57000995  0.90539789  0.37602489    -0.23710
H2157       H  0.77329267  0.97860932  0.39813436     0.05460
H2158       H  0.77076989  0.94070856  0.36176784     0.08690
H2159       H  0.76082263  0.92081640  0.41049848     0.08690
H2160       H  0.55220771  0.89439333  0.34806370     0.08670
H2161       H  0.57242715  0.93878973  0.38429133     0.08670
H2162       H  0.54935293  0.87890933  0.39711939     0.05450
C2163       C  0.56425606  0.73774510  0.39989131    -0.20360
C2164       C  0.59569423  0.72511569  0.41470698    -0.06920
C2165       C  0.58551800  0.67839647  0.41216362     0.13950
C2166       C  0.54920034  0.64829325  0.38861639    -0.20410
C2167       C  0.52307798  0.66422842  0.36814356    -0.06930
C2168       C  0.53031786  0.70967850  0.37453000     0.13940
C2169       C  0.00639802  0.73251241  0.35330937    -0.23760
H2170       H  0.57011704  0.77273336  0.40259888     0.15220
H2171       H  0.54199632  0.61277684  0.38548444     0.15250
C2172       C  0.61382745  0.66057257  0.43257294    -0.23710
H2173       H  0.03161608  0.76457667  0.33936986     0.05460
H2174       H  0.98830213  0.74243955  0.37318844     0.08690
H2175       H  0.98161642  0.71148220  0.33118013     0.08690
H2176       H  0.64065141  0.68749952  0.45090106     0.08670
H2177       H  0.62961936  0.64861052  0.41175274     0.08670
H2178       H  0.59225244  0.63095759  0.45080783     0.05450
C2179       C  0.92984859  0.89280438  0.03404133    -0.20360
C2180       C  0.93297355  0.93634696  0.53919930    -0.06920
C2181       C  0.91604466  0.95473359  0.50941341     0.13950
C2182       C  0.89395383  0.92748452  0.47806241    -0.20410
C2183       C  0.88662721  0.88259644  0.47605757    -0.06930
C2184       C  0.90909732  0.86695105  0.50156322     0.13940
C2185       C  0.91065526  0.82294489  0.99465699    -0.23760
H2186       H  0.94399234  0.87895698  0.05531245     0.15220
H2187       H  0.87714407  0.93890979  0.45709356     0.15250
C2188       C  0.91966361  0.00210531  0.50865669    -0.23710
H2189       H  0.93083545  0.81656813  0.01712214     0.05460
H2190       H  0.92677809  0.82549992  0.46733868     0.08690
H2191       H  0.87611252  0.79316037  0.99364357     0.08690
H2192       H  0.95484909  0.02846770  0.51337078     0.08670
H2193       H  0.89723234  0.00466612  0.02924464     0.08670
H2194       H  0.90919124  0.01048275  0.48067880     0.05450
C2195       C  0.95239178  0.58758050  0.09041024    -0.20360
C2196       C  0.48929548  0.58273661  0.57942078    -0.06920
C2197       C  0.51091039  0.60455665  0.54530749     0.13950
C2198       C  0.48958907  0.62120191  0.52047547    -0.20410
C2199       C  0.45438169  0.62788770  0.53201833    -0.06930
C2200       C  0.93606408  0.61186308  0.06769215     0.13940
C2201       C  0.89964659  0.62026741  0.08159699    -0.23760
H2202       H  0.93556499  0.57107883  0.11624048     0.15220
H2203       H  0.50498817  0.63580912  0.49359256     0.15250
C2204       C  0.55614875  0.61285316  0.53254758    -0.23710
H2205       H  0.88736735  0.60258256  0.10904748     0.05460
H2206       H  0.87081737  0.60691154  0.56075049     0.08690
H2207       H  0.91332501  0.65789491  0.08577551     0.08690
H2208       H  0.57567850  0.60342784  0.55257764     0.08670
H2209       H  0.57772433  0.65046947  0.52747225     0.08670
H2210       H  0.55191440  0.59510171  0.50527755     0.05450
C2211       C  0.61989857  0.05221707  0.50773828    -0.20360
C2212       C  0.66046277  0.56358995  0.52677307    -0.06920
C2213       C  0.66344789  0.56369667  0.06652378     0.13950
C2214       C  0.62383374  0.54626727  0.08653678    -0.20410
C2215       C  0.58199003  0.52509989  0.56686971    -0.06930
C2216       C  0.58013722  0.02811650  0.52658709     0.13940
C2217       C  0.53720279  0.00555684  0.50246911    -0.23760
H2218       H  0.61878587  0.05309490  0.47695582     0.15220
H2219       H  0.62536335  0.54728159  0.11718735     0.15250
C2220       C  0.70820905  0.57917128  0.08680179    -0.23710
H2221       H  0.54296800  0.01513411  0.47206814     0.05460
H2222       H  0.51336707  0.51652096  0.51193983     0.08690
H2223       H  0.52197367  0.96741628  0.50401297     0.08690
H2224       H  0.73161430  0.61554476  0.07905812     0.08670
H2225       H  0.72281564  0.05702508  0.07876341     0.08670
H2226       H  0.70514223  0.57703235  0.11784436     0.05450
C2227       C  0.54086949  0.50938041  0.58795145     0.03080
C2228       C  0.53389190  0.54457125  0.10138959    -0.13070
C2229       C  0.49227855  0.54226747  0.09434236     0.00580
C2230       C  0.95516540  0.99955915  0.08575802    -0.11600
C2231       C  0.96189363  0.96460476  0.57144491     0.03070
C2232       C  0.00406267  0.96704437  0.57793492    -0.11020
H2233       H  0.56283028  0.57728284  0.10866860     0.08670
H2234       H  0.92213093  0.99657507  0.08309402     0.06200
H2235       H  0.01109737  0.94144871  0.56588700     0.06040
C2236       C  0.70149630  0.79728011  0.87002615     0.03080
C2237       C  0.67163896  0.75892206  0.89037602    -0.13070
C2238       C  0.64275374  0.76315803  0.91562223     0.00580
C2239       C  0.65075174  0.80793759  0.92514989    -0.11600
C2240       C  0.67737352  0.84538956  0.90197337     0.03070
C2241       C  0.70120042  0.83856385  0.87387330    -0.11020
H2242       H  0.66681342  0.72540112  0.88226154     0.08670
H2243       H  0.62900731  0.81168982  0.94456204     0.06200
H2244       H  0.71732120  0.86434491  0.85216298     0.06040
C2245       C  0.84934865  0.67426704  0.62704104     0.03080
C2246       C  0.82784336  0.62822816  0.63793527    -0.13070
C2247       C  0.84405729  0.61463179  0.67017385     0.00580
C2248       C  0.88666304  0.64452323  0.68600184    -0.11600
C2249       C  0.91029010  0.69080816  0.67330685     0.03070
C2250       C  0.88866038  0.70549314  0.64655964    -0.11020
H2251       H  0.79452262  0.60534795  0.62605722     0.08670
H2252       H  0.89944673  0.63210419  0.70938158     0.06200
H2253       H  0.90014798  0.74183509  0.64278051     0.06040
C2254       C  0.79940543  0.77875980  0.92537281     0.03080
C2255       C  0.84037704  0.81792041  0.93347245    -0.13070
C2256       C  0.84334239  0.84941238  0.95957106     0.00580
C2257       C  0.80496571  0.84614455  0.47510784    -0.11600
C2258       C  0.76194975  0.81003702  0.46635722     0.03070
C2259       C  0.75925065  0.77398211  0.94242176    -0.11020
H2260       H  0.87131077  0.82302774  0.92143237     0.08670
H2261       H  0.80955621  0.87152612  0.49628352     0.06200
H2262       H  0.72733814  0.74318367  0.93741343     0.06040
C2263       C  0.85219253  0.77485514  0.77671772     0.03080
C2264       C  0.81058260  0.76164292  0.75811149    -0.13070
C2265       C  0.80088488  0.79618728  0.74542102     0.00580
C2266       C  0.83643250  0.83750307  0.73232610    -0.11600
C2267       C  0.88049180  0.85109283  0.74588124     0.03070
C2268       C  0.88828560  0.81971311  0.76916022    -0.11020
H2269       H  0.78250971  0.72818609  0.76463772     0.08670
H2270       H  0.82876639  0.86271101  0.71873864     0.06200
H2271       H  0.92108707  0.83095926  0.78273632     0.06040
C2272       C  0.79050305  0.86808620  0.59608968     0.03080
C2273       C  0.79254269  0.82746608  0.59346387    -0.13070
C2274       C  0.82895213  0.82386213  0.60796447     0.00580
C2275       C  0.86643872  0.86221035  0.62436472    -0.11600
C2276       C  0.86703001  0.90505111  0.62774952     0.03070
C2277       C  0.82825533  0.90770984  0.61307483    -0.11020
H2278       H  0.76546109  0.79753870  0.57930283     0.08670
H2279       H  0.89418642  0.85779177  0.63586418     0.06200
H2280       H  0.82734180  0.93986703  0.61498367     0.06040
C2281       C  0.72662711  0.55400103  0.94992155     0.03080
C2282       C  0.71131495  0.57416608  0.97569165    -0.13070
C2283       C  0.68687114  0.54869270  0.00609481     0.00580
C2284       C  0.67530132  0.00232321  0.51018397    -0.11600
C2285       C  0.68903625  0.98083223  0.48461071     0.03070
C2286       C  0.71691257  0.50743026  0.95507741    -0.11020
H2287       H  0.71743307  0.60936558  0.97180161     0.08670
H2288       H  0.65426462  0.98250774  0.53335335     0.06200
H2289       H  0.72988463  0.49201565  0.93610957     0.06040
C2290       C  0.54450977  0.64756504  0.65594837     0.03080
C2291       C  0.53719055  0.67470659  0.68174406    -0.13070
C2292       C  0.55947851  0.72369432  0.67937478     0.00580
C2293       C  0.58745194  0.74527710  0.64912598    -0.11600
C2294       C  0.58936153  0.72028729  0.61888616     0.03070
C2295       C  0.57157581  0.67125552  0.62394885    -0.11020
H2296       H  0.01463290  0.65698604  0.70447859     0.08670
H2297       H  0.60536967  0.78266217  0.64751362     0.06200
H2298       H  0.57881130  0.65237174  0.60344689     0.06040
C2299       C  0.59403740  0.96215186  0.65288455     0.03080
C2300       C  0.63380868  0.98550748  0.67488719    -0.13070
C2301       C  0.67372074  0.98592500  0.66541492     0.00580
C2302       C  0.67231236  0.95881885  0.63452786    -0.11600
C2303       C  0.63198919  0.92935006  0.61523195     0.03070
C2304       C  0.59243636  0.93174642  0.62413256    -0.11020
H2305       H  0.63246257  0.00171563  0.70048926     0.08670
H2306       H  0.70292084  0.95994646  0.62556359     0.06200
H2307       H  0.56087555  0.91033508  0.60896490     0.06040
O2308       O  0.60612594  0.78609842  0.57604597    -0.85400
O2309       O  0.59485185  0.86658729  0.57164259    -0.82440
C2310       C  0.63240008  0.89694758  0.58601827     0.98060
O2311       O  0.67082099  0.90022910  0.57486294    -0.82480
O2312       O  0.75481339  0.90583665  0.56348903    -0.85120
C2313       C  0.75062601  0.86749249  0.57605339     1.02590
O2314       O  0.71434500  0.82704239  0.56734421    -0.77880
O2315       O  0.63445079  0.73806868  0.56328675    -0.78070
C2316       C  0.61061251  0.74871155  0.58388564     1.02540
O2317       O  0.56951778  0.81070795  0.50627087    -0.85250
O2318       O  0.63951720  0.90403041  0.50576937    -0.82460
C2319       C  0.67918603  0.93364815  0.49510288     0.98080
O2320       O  0.71197954  0.92607016  0.50099105    -0.82490
O2321       O  0.73397240  0.85427432  0.49776498    -0.85090
C2322       C  0.72488355  0.81367666  0.48635686     1.02560
O2323       O  0.68748518  0.77888811  0.49526618    -0.77910
O2324       O  0.59008911  0.75654446  0.50254856    -0.78060
C2325       C  0.56059733  0.77060232  0.49637858     1.02520
Cr2326     Cr  0.62338512  0.84636419  0.53853592     1.93740
Cr2327     Cr  0.70164673  0.87443988  0.53465712     1.93210
Cr2328     Cr  0.65114728  0.79133018  0.53300157     1.39100
O2329       O  0.65621508  0.83763731  0.51228436    -1.23150
C2330       C  0.94124971  0.69419810  0.95072799     0.03080
C2331       C  0.92722932  0.65936019  0.97872532    -0.13070
C2332       C  0.45271547  0.66635854  0.01245613     0.00580
C2333       C  0.49202125  0.70783952  0.51847779    -0.11600
C2334       C  0.51237920  0.73695142  0.48834273     0.03070
C2335       C  0.48522428  0.73359385  0.95549124    -0.11020
H2336       H  0.89711115  0.62642237  0.97416198     0.08670
H2337       H  0.51169357  0.71215051  0.54466203     0.06200
H2338       H  0.49837666  0.76040146  0.93424959     0.06040
C2339       C  0.61255898  0.51430751  0.78559419     0.03080
C2340       C  0.61118932  0.47527235  0.80414226    -0.13070
C2341       C  0.64494911  0.48152186  0.83151820     0.00580
C2342       C  0.67976260  0.52576185  0.83861342    -0.11600
C2343       C  0.68623027  0.56301460  0.81640667     0.03070
C2344       C  0.65056742  0.55870547  0.79226281    -0.11020
H2345       H  0.58442011  0.94092858  0.79729796     0.08670
H2346       H  0.70392848  0.53084653  0.86142325     0.06200
H2347       H  0.65313533  0.58910009  0.77784133     0.06040
C2348       C  0.95732954  0.58790713  0.78434942     0.03080
C2349       C  0.91620259  0.58994696  0.78802491    -0.13070
C2350       C  0.91139216  0.61337288  0.81968188     0.00580
C2351       C  0.94447542  0.62875293  0.84815124    -0.11600
C2352       C  0.98603215  0.63252047  0.84281407     0.03070
C2353       C  0.99241642  0.61100293  0.81172805    -0.11020
H2354       H  0.88917480  0.57422058  0.76684183     0.08670
H2355       H  0.94011354  0.64334226  0.87373011     0.06200
H2356       H  0.02497928  0.61310336  0.80863758     0.06040
O2357       O  0.74288180  0.61323138  0.90411034    -0.85400
O2358       O  0.76825358  0.70614799  0.89308030    -0.82440
C2359       C  0.80285417  0.74369366  0.90162196     0.98060
O2360       O  0.84181499  0.75116149  0.89067393    -0.82480
O2361       O  0.90852650  0.72176842  0.90133656    -0.85120
C2362       C  0.90896056  0.68725745  0.91785583     1.02590
O2363       O  0.87925981  0.64581276  0.90781936    -0.77880
O2364       O  0.78698250  0.58090008  0.90813085    -0.78070
C2365       C  0.75303592  0.58339098  0.91883364     1.02540
O2366       O  0.72557728  0.64158014  0.83376866    -0.85400
O2367       O  0.81336490  0.71306531  0.82171207    -0.82460
C2368       C  0.85258865  0.74576943  0.80964878     0.98080
O2369       O  0.88988358  0.75471660  0.82709636    -0.82490
O2370       O  0.88059605  0.66396843  0.83401119    -0.85090
C2371       C  0.87307150  0.62082659  0.82953538     1.02560
O2372       O  0.83948442  0.58656652  0.84433141    -0.77910
O2373       O  0.76444909  0.60104435  0.83430970    -0.78060
C2374       C  0.72832492  0.60556786  0.82566954     1.02520
Cr2375     Cr  0.77754225  0.66137718  0.86415835     1.93740
Cr2376     Cr  0.85903067  0.70810171  0.86284997     1.93210
Cr2377     Cr  0.82478763  0.62599989  0.87037063     1.39100
O2378       O  0.82150787  0.66835881  0.88848869    -1.23150
O2379       O  0.90808074  0.93089412  0.72639510    -0.85400
O2380       O  0.93275602  0.52725252  0.73732841    -0.82440
C2381       C  0.46550665  0.56205278  0.75358497     0.98060
O2382       O  0.50637086  0.57349072  0.74503448    -0.82480
O2383       O  0.57307010  0.54528542  0.74942991    -0.85120
C2384       C  0.57584249  0.50939101  0.75849949     1.02590
O2385       O  0.54785904  0.97013727  0.74354254    -0.77880
O2386       O  0.95615510  0.90342544  0.73216138    -0.78070
C2387       C  0.91688826  0.89783499  0.73559537     1.02540
O2388       O  0.90152704  0.97748924  0.66310692    -0.85400
O2389       O  0.99069731  0.56410891  0.67296692    -0.82460
C2390       C  0.53300634  0.59918388  0.67008021     0.98080
O2391       O  0.56599934  0.59579551  0.68535576    -0.82490
O2392       O  0.55814172  0.50578267  0.67600099    -0.85090
C2393       C  0.55400577  0.96507885  0.66604228     1.02560
O2394       O  0.51882200  0.92702819  0.67336739    -0.77910
O2395       O  0.94054326  0.93761052  0.66206670    -0.78060
C2396       C  0.90541710  0.94305309  0.65100042     1.02520
Cr2397     Cr  0.94904185  0.99405235  0.69980017     1.93740
Cr2398     Cr  0.52911536  0.54002833  0.70965602     1.93210
Cr2399     Cr  0.99712791  0.95745218  0.70318591     1.39100
O2400       O  0.98871954  0.99385706  0.72669343    -1.23150
C2401       C  0.79326115  0.69831108  0.62613079    -0.20360
C2402       C  0.82528656  0.69407863  0.60532930    -0.06920
C2403       C  0.84938402  0.72771380  0.57795182     0.13950
C2404       C  0.85097045  0.77060385  0.57988427    -0.20410
C2405       C  0.82554337  0.77811612  0.60615267    -0.06930
C2406       C  0.79341627  0.74054838  0.62722168     0.13940
C2407       C  0.76155309  0.74563080  0.65274472    -0.23760
H2408       H  0.77327733  0.67133512  0.64603972     0.15220
H2409       H  0.87270548  0.79855119  0.56183479     0.15250
C2410       C  0.87694947  0.71997395  0.54963823    -0.23710
H2411       H  0.74218626  0.71400910  0.66991628     0.05460
H2412       H  0.73695743  0.75199104  0.63567614     0.08690
H2413       H  0.78076750  0.77502726  0.67224628     0.08690
H2414       H  0.86620754  0.72453914  0.52054637     0.08670
H2415       H  0.87168137  0.68423052  0.55134762     0.08670
H2416       H  0.91323499  0.74471434  0.55454984     0.05450
C2417       C  0.97061127  0.71443200  0.72429170    -0.20360
C2418       C  0.95632272  0.72370134  0.68845864    -0.06920
C2419       C  0.98968675  0.76038682  0.66630389     0.13950
C2420       C  0.03436298  0.78045681  0.67981236    -0.20410
C2421       C  0.04588010  0.75222567  0.70232511    -0.06930
C2422       C  0.01663911  0.72967477  0.73157441     0.13940
C2423       C  0.03346772  0.71510538  0.76614905    -0.23760
H2424       H  0.94648898  0.69208506  0.74461448     0.15220
H2425       H  0.06010571  0.80834913  0.66380966     0.15250
C2426       C  0.98210232  0.77445661  0.62674584    -0.23710
H2427       H  0.00484714  0.69100209  0.78287464     0.05460
H2428       H  0.55621221  0.74601287  0.78322283     0.08690
H2429       H  0.55254663  0.69719326  0.75872165     0.08690
H2430       H  0.96370151  0.74357087  0.60837020     0.08670
H2431       H  0.01433677  0.79677592  0.61271014     0.08670
H2432       H  0.96459472  0.79530872  0.62762760     0.05450
C2433       C  0.75034637  0.49989662  0.68613158    -0.20360
C2434       C  0.71784351  0.51509715  0.68607971    -0.06920
C2435       C  0.73211125  0.56098828  0.69891387     0.13950
C2436       C  0.77805896  0.59033631  0.70603277    -0.20410
C2437       C  0.80952785  0.57843211  0.69314673    -0.06930
C2438       C  0.79631252  0.53188239  0.68678064     0.13940
C2439       C  0.82957924  0.51636799  0.67685094    -0.23760
H2440       H  0.74021464  0.96406418  0.68027033     0.15220
H2441       H  0.78961090  0.62629675  0.71294379     0.15250
C2442       C  0.70170713  0.58223249  0.70170921    -0.23710
H2443       H  0.82191827  0.50217007  0.64764957     0.05460
H2444       H  0.82723115  0.48910548  0.69699800     0.08690
H2445       H  0.86472292  0.54523471  0.67831837     0.08690
H2446       H  0.67906876  0.56620096  0.72526227     0.08670
H2447       H  0.68190082  0.57824998  0.67509645     0.08670
H2448       H  0.72074241  0.61985345  0.70795212     0.05450
C2449       C  0.70361776  0.76445013  0.80839216    -0.20360
C2450       C  0.72700257  0.79449042  0.83872626    -0.06920
C2451       C  0.77216716  0.82904464  0.83481948     0.13950
C2452       C  0.79254236  0.83294613  0.80092620    -0.20410
C2453       C  0.77065382  0.80129410  0.77127817    -0.06930
C2454       C  0.72519285  0.76724190  0.77459766     0.13940
C2455       C  0.69953496  0.73470177  0.74244414    -0.23760
H2456       H  0.66823601  0.73966431  0.81080217     0.15220
H2457       H  0.82767892  0.85877641  0.79926183     0.15250
C2458       C  0.80050604  0.86269831  0.86567055    -0.23710
H2459       H  0.66381840  0.71154412  0.74934872     0.05460
H2460       H  0.71468122  0.71262347  0.73600458     0.08690
H2461       H  0.70011501  0.75494522  0.71678279     0.08690
H2462       H  0.78352170  0.85586395  0.89297397     0.08670
H2463       H  0.80990559  0.89840865  0.85642403     0.08670
H2464       H  0.83203313  0.86080176  0.87061404     0.05450
C2465       C  0.69396634  0.95053314  0.85478067    -0.20360
C2466       C  0.64985105  0.94435457  0.85171521    -0.06920
C2467       C  0.61643374  0.91047517  0.87447370     0.13950
C2468       C  0.62712976  0.88076658  0.89627864    -0.20410
C2469       C  0.67121519  0.88668877  0.89775769    -0.06930
C2470       C  0.70580343  0.92657312  0.88121211     0.13940
C2471       C  0.75532575  0.94217407  0.88843718    -0.23760
H2472       H  0.72057456  0.47704785  0.83831011     0.15220
H2473       H  0.60037353  0.85164491  0.91027480     0.15250
C2474       C  0.57001034  0.90539781  0.87602490    -0.23710
H2475       H  0.77329298  0.97860951  0.89813431     0.05460
H2476       H  0.77077041  0.94070876  0.86176786     0.08690
H2477       H  0.76082312  0.92081666  0.91049851     0.08690
H2478       H  0.55220802  0.89439312  0.84806375     0.08670
H2479       H  0.57242754  0.93878968  0.88429126     0.08670
H2480       H  0.54935339  0.87890933  0.89711947     0.05450
C2481       C  0.56425640  0.73774530  0.89989092    -0.20360
C2482       C  0.59569445  0.72511578  0.91470671    -0.06920
C2483       C  0.58551809  0.67839652  0.91216344     0.13950
C2484       C  0.54920039  0.64829330  0.88861624    -0.20410
C2485       C  0.52307807  0.66422850  0.86814337    -0.06930
C2486       C  0.53031804  0.70967862  0.87452974     0.13940
C2487       C  0.00639631  0.73250943  0.85330926    -0.23760
H2488       H  0.57011750  0.77273362  0.90259837     0.15220
H2489       H  0.54199629  0.61277686  0.88548436     0.15250
C2490       C  0.61382739  0.66057253  0.93257290    -0.23710
H2491       H  0.03161415  0.76457327  0.83936910     0.05460
H2492       H  0.98830088  0.74243726  0.87318823     0.08690
H2493       H  0.98161437  0.71147872  0.83118035     0.08690
H2494       H  0.64065141  0.68749950  0.95090098     0.08670
H2495       H  0.62961922  0.64861028  0.91175280     0.08670
H2496       H  0.59225228  0.63095769  0.95080788     0.05450
C2497       C  0.92984864  0.89280396  0.53404163    -0.20360
C2498       C  0.93297275  0.93634699  0.03919950    -0.06920
C2499       C  0.91604366  0.95473363  0.00941376     0.13950
C2500       C  0.89395359  0.92748500  0.97806236    -0.20410
C2501       C  0.88662777  0.88259724  0.97605699    -0.06930
C2502       C  0.90909838  0.86695217  0.00156238     0.13940
C2503       C  0.91065217  0.82294248  0.49465888    -0.23760
H2504       H  0.94399232  0.87895665  0.55531289     0.15220
H2505       H  0.87714358  0.93891014  0.95709365     0.15250
C2506       C  0.91966160  0.00210491  0.00865757    -0.23710
H2507       H  0.93083255  0.81656583  0.51712391     0.05460
H2508       H  0.92678232  0.82550426  0.96733702     0.08690
H2509       H  0.87610886  0.79315880  0.49364664     0.08690
H2510       H  0.95484688  0.02846772  0.01337188     0.08670
H2511       H  0.89723481  0.00466747  0.52924368     0.08670
H2512       H  0.90918910  0.01048250  0.98067980     0.05450
C2513       C  0.95239239  0.58758112  0.59041144    -0.20360
C2514       C  0.48929498  0.58273656  0.07942085    -0.06920
C2515       C  0.51090978  0.60455619  0.04530742     0.13950
C2516       C  0.48958847  0.62120138  0.02047531    -0.20410
C2517       C  0.45438141  0.62788765  0.03201824    -0.06930
C2518       C  0.93606485  0.61186452  0.56769424     0.13940
C2519       C  0.89964921  0.62027059  0.58160092    -0.23760
H2520       H  0.93556625  0.57107961  0.61624195     0.15220
H2521       H  0.50498746  0.63580829  0.99359230     0.15250
C2522       C  0.55614807  0.61285250  0.03254749    -0.23710
H2523       H  0.88737049  0.60258559  0.60905147     0.05460
H2524       H  0.87081550  0.60690693  0.06074577     0.08690
H2525       H  0.91332948  0.65789821  0.58578026     0.08690
H2526       H  0.57567784  0.60342729  0.05257762     0.08670
H2527       H  0.57772369  0.65046876  0.02747198     0.08670
H2528       H  0.55191362  0.59510085  0.00527753     0.05450
C2529       C  0.61989852  0.05221709  0.00773805    -0.20360
C2530       C  0.66046030  0.56358873  0.02677182    -0.06920
C2531       C  0.66344975  0.56369730  0.56652505     0.13950
C2532       C  0.62383526  0.54626794  0.58653762    -0.20410
C2533       C  0.58198824  0.52509885  0.06686934    -0.06930
C2534       C  0.58013708  0.02811664  0.02658675     0.13940
C2535       C  0.53720274  0.00555713  0.00246866    -0.23760
H2536       H  0.61878594  0.05309496  0.97695558     0.15220
H2537       H  0.62536440  0.54728191  0.61718819     0.15250
C2538       C  0.70821061  0.57917126  0.58680348    -0.23710
H2539       H  0.54296808  0.01513453  0.97206771     0.05460
H2540       H  0.51336463  0.51651989  0.01194010     0.08690
H2541       H  0.52197358  0.96741656  0.00401241     0.08690
H2542       H  0.73161616  0.61554490  0.57906043     0.08670
H2543       H  0.72281611  0.05702557  0.57876338     0.08670
H2544       H  0.70514327  0.57703161  0.61784599     0.05450
loop_ 
_geom_bond_atom_site_label_1 
_geom_bond_atom_site_label_2 
_geom_bond_distance 
_geom_bond_site_symmetry_2 
_ccdc_geom_bond_type 
C1          C320   1.390       .  A
C1         C1914   1.393   1_545  A
C1          C625   1.463       .  S
C2            C3   1.390   1_455  A
C2          C319   1.390       .  A
C2            H7   1.079       .  S
C3         C1912   1.393   1_545  A
C3          C288   1.474       .  S
C4         C1911   1.393       .  A
C4          C323   1.389       .  A
C4            H8   1.078       .  S
C5            C6   1.404       .  A
C5          C322   1.389       .  A
C5          C590   1.483       .  S
C6         C1909   1.393       .  A
C6            H9   1.082       .  S
C10          C11   1.389       .  A
C10          C15   1.378       .  A
C10         C224   1.462       .  S
C11          C12   1.408       .  A
C11          H16   1.081       .  S
C12          C13   1.415       .  A
C12         C256   1.480       .  S
C13          C14   1.398       .  A
C13          H17   1.078       .  S
C14          C15   1.393       .  A
C14         C243   1.481       .  S
C15          H18   1.081       .  S
C19          C20   1.386       .  A
C19          C24   1.395       .  A
C19         C176   1.459       .  S
C20          C21   1.403       .  A
C20          H25   1.084       .  S
C21          C22   1.399       .  A
C21         C211   1.464       .  S
C22          C23   1.413       .  A
C22          H26   1.081       .  S
C23          C24   1.392       .  A
C23         C192   1.492       .  S
C24          H27   1.075       .  S
C28          C29   1.391       .  A
C28          C33   1.449       .  A
C28         C133   1.496       .  S
C29          C30   1.369       .  A
C29          H34   1.083       .  S
C30         C349   1.389       .  A
C30         C275   1.449       .  S
C31          C32   1.395       .  A
C31         C348   1.389       .  A
C31          H35   1.085       .  S
C32         C351   1.439       .  A
C32          C96   1.522       .  S
C33         C350   1.439       .  A
C33          H36   1.080       .  S
C37          C38   1.400       .  A
C37          C42   1.423       .  A
C37         C142   1.497       .  S
C38          C39   1.394       .  A
C38          H43   1.083       .  S
C39          C40   1.400       .  A
C39         C227   1.471       .  S
C40          C41   1.404       .  A
C40          H44   1.084       .  S
C41          C42   1.426       .  A
C41         C161   1.487       .  S
C42          H45   1.083       .  S
C46          C47   1.382       .  A
C46          C51   1.437       .  A
C46          C87   1.494       .  S
C47          C48   1.376       .  A
C47          H52   1.085       .  S
C48          C49   1.405       .  A
C48         C179   1.462       .  S
C49          C50   1.413       .  A
C49          H53   1.083       .  S
C50          C51   1.437       .  A
C50         C170   1.525       .  S
C51          H54   1.081       .  S
C55          C56   1.393       .  A
C55          C60   1.419       .  A
C55         C139   1.465       .  S
C56          C57   1.382       .  A
C56          H61   1.085       .  S
C57        C1012   1.391       .  A
C57         C304   1.440       .  S
C58          C59   1.385   1_554  A
C58        C1011   1.391       .  A
C58          H62   1.087       .  S
C59        C1014   1.412       .  A
C59          C93   1.470       .  S
C60        C1013   1.412   1_545  A
C60          H63   1.075   1_545  S
C64          C65   1.401       .  A
C64          C69   1.444       .  A
C64         C164   1.528       .  S
C65          C66   1.419       .  A
C65        H1342   1.082       .  S
C66          C67   1.395       .  A
C66        C1467   1.497       .  S
C67          C68   1.386       .  A
C67          H71   1.083       .  S
C68          C69   1.440       .  A
C68          C90   1.516       .  S
C69          H72   1.075       .  S
H70        C1337   1.082       .  S
C73          C74   1.398       .  A
C73          C78   1.424       .  A
C73         C167   1.501       .  S
C74          C75   1.402       .  A
C74          H79   1.074       .  S
C75          C76   1.410       .  A
C75         C844   1.500       .  S
C76          C77   1.397       .  A
C76          H80   1.082       .  S
C77          C78   1.430       .  A
C77          C84   1.507       .  S
C78          H81   1.083       .  S
O82        Cr100   2.211       .  S
O82          C90   1.338       .  A
O83        Cr100   1.871       .  S
O83          C84   1.274       .  A
C84          O85   1.331       .  A
O85        Cr101   2.206       .  S
O86        Cr101   1.859       .  S
O86          C87   1.277       .  A
C87          O88   1.339       .  A
O88        Cr102   2.207       .  S
O89        Cr102   1.889       .  S
O89          C90   1.281       .  A
O91        Cr100   1.959       .  S
O91          C99   1.262   1_554  A
O92        Cr100   2.054       .  S
O92          C93   1.290   1_554  A
C93          O94   1.263   1_556  A
O94        Cr101   1.954       .  S
O95        Cr101   2.050   1_556  S
O95          C96   1.292       .  A
C96          O97   1.280       .  A
O97        Cr102   2.028   1_556  S
O98        Cr102   2.084       .  S
O98          C99   1.301   1_554  A
C99         C108   1.488       .  S
Cr100       O103   1.609       .  S
Cr101       O103   1.616       .  S
Cr102       O103   1.617       .  S
C104        C105   1.411       .  A
C104       C1381   1.436       .  A
C104        C136   1.506       .  S
C105       C1378   1.399       .  A
C105        H110   1.084       .  S
C106       C1377   1.399       .  A
C106        C425   1.388       .  A
C106        C291   1.458       .  S
C107        C108   1.382   1_654  A
C107        C424   1.388       .  A
C107        H111   1.089   1_655  S
C108        C427   1.424   1_455  A
C109       C1376   1.436       .  A
C109        C426   1.424   1_655  A
C109        H112   1.079       .  S
C113        C114   1.416   1_545  A
C113        C118   1.426       .  A
C113        C158   1.487       .  S
C114        C115   1.408       .  A
C114        H755   1.081       .  S
C115        C116   1.385   1_565  A
C115        C876   1.482       .  S
C116        C117   1.375       .  A
C116        H120   1.081       .  S
C117        C118   1.403       .  A
C117        C148   1.471       .  S
C118        H121   1.083       .  S
H119        C750   1.081       .  S
C122        C123   1.441       .  A
C122        C127   1.413       .  A
C122       C1427   1.510       .  S
C123        C124   1.431       .  A
C123        H128   1.082       .  S
C124        C125   1.382       .  A
C124        C145   1.491       .  S
C125        C126   1.375       .  A
C125        H129   1.081       .  S
C126        C127   1.399       .  A
C126       C1531   1.468       .  S
C127        H130   1.083       .  S
O131       Cr149   2.034       .  S
O131        C139   1.286       .  A
O132       Cr149   1.967       .  S
O132        C133   1.260       .  A
C133        O134   1.297       .  A
O134       Cr150   2.059       .  S
O135       Cr150   1.996       .  S
O135        C136   1.276       .  A
C136        O137   1.294       .  A
O137       Cr151   2.066       .  S
O138       Cr151   1.963       .  S
O138        C139   1.267       .  A
O140       Cr149   1.858       .  S
O140        C148   1.277       .  A
O141       Cr149   2.162       .  S
O141        C142   1.326       .  A
C142        O143   1.286       .  A
O143       Cr150   1.879       .  S
O144       Cr150   2.203       .  S
O144        C145   1.333       .  A
C145        O146   1.277       .  A
O146       Cr151   1.873       .  S
O147       Cr151   2.168       .  S
O147        C148   1.328       .  A
Cr149       O152   1.610       .  S
Cr150       O152   1.610       .  S
Cr151       O152   1.604       .  S
O153       Cr171   2.095       .  S
O153        C161   1.297       .  A
O154       Cr807   1.993   1_545  S
O154       C1427   1.276       .  A
C155       C1394   1.510       .  S
C155        O156   1.296   1_655  A
C155       O1426   1.276       .  A
O156       Cr172   2.083       .  S
O157       Cr172   1.955       .  S
O157        C158   1.268       .  A
C158        O795   1.289   1_545  A
O159      Cr1445   2.074   1_455  S
O159        C794   1.289       .  A
O160       Cr173   1.951       .  S
O160        C161   1.265       .  A
O162       Cr171   1.894       .  S
O162        C170   1.290       .  A
O163       Cr807   2.260   1_545  S
O163       C1436   1.347       .  A
C164        O165   1.276       .  A
C164       O1435   1.347   1_455  A
O165       Cr172   1.868       .  S
O166       Cr172   2.212       .  S
O166        C803   1.336   1_545  A
C167        O168   1.278       .  A
C167        O802   1.336       .  A
O168      Cr1445   1.866   1_455  S
O169       Cr173   2.197       .  S
O169        C170   1.332       .  A
Cr171       O790   1.993       .  S
Cr171       O799   2.260       .  S
Cr171       O174   1.619       .  S
Cr172      O2082   1.605   1_445  S
Cr173      O1431   2.074       .  S
Cr173      O1440   1.866       .  S
Cr173       O174   1.615       .  S
O174      Cr2080   1.605       .  S
C175        C176   1.399       .  A
C175        C180   1.394       .  A
C175        H182   1.085       .  S
C176        C177   1.407       .  A
C177        C178   1.395       .  A
C177        C184   1.503       .  S
C178        C179   1.396       .  A
C178        H183   1.076       .  S
C179        C180   1.415       .  A
C180        C181   1.507       .  S
C181        H185   1.111       .  S
C181        H186   1.109       .  S
C181        H187   1.106       .  S
C184        H188   1.108       .  S
C184        H189   1.106       .  S
C184        H190   1.110       .  S
C191        C192   1.417       .  A
C191        C196   1.405       .  A
C191        H198   1.082       .  S
C192        C193   1.438       .  A
C193        C194   1.397       .  A
C193        C200   1.515       .  S
C194        C195   1.397       .  A
C194        H199   1.083       .  S
C195        C196   1.394       .  A
C195       C1338   1.497       .  S
C196        C197   1.495       .  S
C197        H201   1.098       .  S
C197       H1474   1.108       .  S
C197       H1475   1.109       .  S
C200        H204   1.110       .  S
C200        H205   1.111       .  S
C200        H206   1.108       .  S
H202       C1469   1.108       .  S
H203       C1469   1.109       .  S
C207        C208   1.416   1_565  A
C207        C212   1.399   1_565  A
C207        H850   1.084       .  S
C208        C209   1.428       .  A
C208        C711   1.500   1_545  S
C209        C210   1.398       .  A
C209        C216   1.510       .  S
C210        C211   1.398       .  A
C210        H215   1.086       .  S
C211        C212   1.399       .  A
C212        C213   1.503       .  S
C213        H217   1.110       .  S
C213        H218   1.110   1_545  S
C213        H219   1.110       .  S
H214        C843   1.084       .  S
C216        H220   1.097       .  S
C216        H221   1.105       .  S
C216        H222   1.111       .  S
C223        C224   1.406       .  A
C223        C228   1.403       .  A
C223        H230   1.084       .  S
C224        C225   1.411       .  A
C225        C226   1.379       .  A
C225        C232   1.510       .  S
C226        C227   1.405       .  A
C226        H231   1.084       .  S
C227        C228   1.411       .  A
C228        C229   1.507       .  S
C229        H233   1.111       .  S
C229        H234   1.108       .  S
C229        H235   1.110       .  S
C232        H236   1.106       .  S
C232        H237   1.109       .  S
C232        H238   1.109       .  S
C239        C240   1.410       .  A
C239        C244   1.381       .  A
C239        H882   1.085       .  S
C240        C241   1.412       .  A
C240        C751   1.482       .  S
C241        C242   1.407       .  A
C241        C248   1.505       .  S
C242        C243   1.411       .  A
C242        H247   1.080       .  S
C243        C244   1.409       .  A
C244        C245   1.513       .  S
C245        H249   1.109       .  S
C245        H250   1.109       .  S
C245        H251   1.110       .  S
H246        C875   1.085       .  S
C248        H252   1.108       .  S
C248        H253   1.110       .  S
C248        H254   1.111       .  S
C255        C256   1.401       .  A
C255        C260   1.381       .  A
C255        H262   1.080       .  S
C256        C257   1.414       .  A
C257        C258   1.403       .  A
C257        C264   1.505       .  S
C258        C259   1.404       .  A
C258        H263   1.084       .  S
C259        C260   1.421       .  A
C259       C1398   1.468   1_455  S
C260       C1533   1.520       .  S
C261       C1532   1.520       .  S
C261        H265   1.110       .  S
C261        H266   1.103       .  S
C261        H267   1.098       .  S
C264        H268   1.110       .  S
C264        H269   1.110       .  S
C264        H270   1.108       .  S
C271        C590   1.406       .  A
C271        C594   1.391       .  A
C271        H278   1.083       .  S
C272        C273   1.438       .  A
C272        C589   1.406       .  A
C272        C323   1.483       .  S
C273        C274   1.386       .  A
C273        C280   1.509       .  S
C274        C275   1.383       .  A
C274        H279   1.086       .  S
C275        C276   1.403       .  A
C276        C589   1.391       .  A
C276        C595   1.505       .  S
C277        C594   1.505   1_556  S
C277        H281   1.110   1_556  S
C277        H283   1.108       .  S
C277        H600   1.110       .  S
C280        H284   1.094       .  S
C280        H286   1.111       .  S
C280        H603   1.107       .  S
H282        C595   1.110       .  S
H285        C598   1.107       .  S
C287        C292   1.401       .  A
C287       C1878   1.407       .  A
C287        H294   1.084       .  S
C288        C289   1.426   1_655  A
C288       C1877   1.407       .  A
C289        C290   1.382   1_455  A
C289        C296   1.510       .  S
C290        C291   1.393       .  A
C290        H295   1.088   1_655  S
C291       C1882   1.404       .  A
C292       C1881   1.404       .  A
C292        C293   1.494       .  S
C293        H297   1.108       .  S
C293        H299   1.108       .  S
C293        H616   1.110       .  S
C296        H300   1.091       .  S
C296        H301   1.111       .  S
C296        H302   1.106       .  S
H298        C611   1.110       .  S
C303        C308   1.382       .  A
C303        C940   1.388       .  A
C303        H310   1.086       .  S
C304        C939   1.388       .  A
C304        C623   1.403       .  A
C305        C306   1.397       .  A
C305        C622   1.403       .  A
C305        C312   1.503       .  S
C306        C625   1.404       .  A
C306        H311   1.082       .  S
C307        C624   1.404       .  A
C307        C944   1.425       .  A
C307        C319   1.463       .  S
C308        C943   1.425       .  A
C308        C309   1.511       .  S
C309        H313   1.111       .  S
C309        H315   1.108       .  S
C309        H950   1.099       .  S
C312        H316   1.110       .  S
C312        H318   1.103       .  S
C312        H953   1.110       .  S
H314        C945   1.099       .  S
H317        C948   1.110       .  S
C319       C2232   1.393   1_545  A
C320        C321   1.390   1_455  A
C320        H325   1.079       .  S
C321       C2230   1.393   1_545  A
C321        C606   1.474       .  S
C322       C2229   1.393       .  A
C322        H326   1.078       .  S
C323        C324   1.404       .  A
C324       C2227   1.393       .  A
C324        H327   1.082       .  S
C328        C329   1.389       .  A
C328        C333   1.378       .  A
C328        C542   1.462       .  S
C329        C330   1.408       .  A
C329        H334   1.081       .  S
C330        C331   1.415       .  A
C330        C574   1.480       .  S
C331        C332   1.398       .  A
C331        H335   1.078       .  S
C332        C333   1.393       .  A
C332        C561   1.481       .  S
C333        H336   1.081       .  S
C337        C338   1.386       .  A
C337        C342   1.395       .  A
C337        C494   1.459       .  S
C338        C339   1.403       .  A
C338        H343   1.084       .  S
C339        C340   1.399       .  A
C339        C529   1.464       .  S
C340        C341   1.413       .  A
C340        H344   1.081       .  S
C341        C342   1.392       .  A
C341        C510   1.492       .  S
C342        H345   1.075       .  S
C346        C347   1.391       .  A
C346        C351   1.449       .  A
C346        C451   1.496       .  S
C347        C348   1.369       .  A
C347        H352   1.083       .  S
C348        C593   1.449       .  S
C349        C350   1.395       .  A
C349        H353   1.085       .  S
C350        C414   1.522       .  S
C351        H354   1.080       .  S
C355        C356   1.400       .  A
C355        C360   1.423       .  A
C355        C460   1.497       .  S
C356        C357   1.394       .  A
C356        H361   1.083       .  S
C357        C358   1.400       .  A
C357        C545   1.471       .  S
C358        C359   1.404       .  A
C358        H362   1.084       .  S
C359        C360   1.426       .  A
C359        C479   1.487       .  S
C360        H363   1.083       .  S
C364        C365   1.382       .  A
C364        C369   1.437       .  A
C364        C405   1.494       .  S
C365        C366   1.376       .  A
C365        H370   1.085       .  S
C366        C367   1.405       .  A
C366        C497   1.462       .  S
C367        C368   1.413       .  A
C367        H371   1.083       .  S
C368        C369   1.437       .  A
C368        C488   1.525       .  S
C369        H372   1.081       .  S
C373        C374   1.393       .  A
C373        C378   1.419       .  A
C373        C457   1.465       .  S
C374        C375   1.382   1_556  A
C374        H379   1.085       .  S
C375        C694   1.391       .  A
C375        C622   1.440       .  S
C376        C693   1.391       .  A
C376        C377   1.385       .  A
C376        H380   1.087       .  S
C377        C696   1.412       .  A
C377        C411   1.470       .  S
C378        C695   1.412   1_545  A
C378        H381   1.075   1_545  S
C382        C383   1.401       .  A
C382        C387   1.444       .  A
C382        C482   1.528       .  S
C383        C384   1.419       .  A
C383       H1660   1.082       .  S
C384        C385   1.395       .  A
C384       C1785   1.497       .  S
C385        C386   1.386       .  A
C385        H389   1.083       .  S
C386        C387   1.440       .  A
C386        C408   1.516       .  S
C387        H390   1.075       .  S
H388       C1655   1.082       .  S
C391        C392   1.398       .  A
C391        C396   1.424       .  A
C391        C485   1.501       .  S
C392        C393   1.402       .  A
C392        H397   1.074       .  S
C393        C394   1.410       .  A
C393       C1162   1.500       .  S
C394        C395   1.397       .  A
C394        H398   1.082       .  S
C395        C396   1.430       .  A
C395        C402   1.507       .  S
C396        H399   1.083       .  S
O400       Cr418   2.211       .  S
O400        C408   1.338       .  A
O401       Cr418   1.871       .  S
O401        C402   1.274       .  A
C402        O403   1.331       .  A
O403       Cr419   2.206       .  S
O404       Cr419   1.859       .  S
O404        C405   1.277       .  A
C405        O406   1.339       .  A
O406       Cr420   2.207       .  S
O407       Cr420   1.889       .  S
O407        C408   1.281       .  A
O409       Cr418   1.959       .  S
O409        C417   1.262       .  A
O410       Cr418   2.054       .  S
O410        C411   1.290       .  A
C411        O412   1.263       .  A
O412       Cr419   1.954       .  S
O413       Cr419   2.050       .  S
O413        C414   1.292       .  A
C414        O415   1.280       .  A
O415       Cr420   2.028       .  S
O416       Cr420   2.084       .  S
O416        C417   1.301       .  A
C417        C426   1.488       .  S
Cr418       O421   1.609       .  S
Cr419       O421   1.616       .  S
Cr420       O421   1.617       .  S
C422        C423   1.411       .  A
C422       C1699   1.436       .  A
C422        C454   1.506       .  S
C423       C1696   1.399   1_556  A
C423        H428   1.084       .  S
C424       C1695   1.399   1_554  A
C424        C609   1.458       .  S
C425        C426   1.382   1_655  A
C425        H429   1.089   1_655  S
C427       C1694   1.436       .  A
C427        H430   1.079       .  S
C431        C432   1.416   1_545  A
C431        C436   1.426       .  A
C431        C476   1.487       .  S
C432        C433   1.408       .  A
C432       H1073   1.081       .  S
C433        C434   1.385   1_565  A
C433       C1194   1.482       .  S
C434        C435   1.375       .  A
C434        H438   1.081       .  S
C435        C436   1.403       .  A
C435        C466   1.471       .  S
C436        H439   1.083       .  S
H437       C1068   1.081       .  S
C440        C441   1.441       .  A
C440        C445   1.413       .  A
C440       C1745   1.510       .  S
C441        C442   1.431       .  A
C441        H446   1.082       .  S
C442        C443   1.382       .  A
C442        C463   1.491       .  S
C443        C444   1.375       .  A
C443        H447   1.081       .  S
C444        C445   1.399       .  A
C444       C1849   1.468       .  S
C445        H448   1.083       .  S
O449       Cr467   2.034       .  S
O449        C457   1.286       .  A
O450       Cr467   1.967       .  S
O450        C451   1.260       .  A
C451        O452   1.297       .  A
O452       Cr468   2.059       .  S
O453       Cr468   1.996       .  S
O453        C454   1.276       .  A
C454        O455   1.294       .  A
O455       Cr469   2.066       .  S
O456       Cr469   1.963       .  S
O456        C457   1.267       .  A
O458       Cr467   1.858       .  S
O458        C466   1.277       .  A
O459       Cr467   2.162       .  S
O459        C460   1.326       .  A
C460        O461   1.286       .  A
O461       Cr468   1.879       .  S
O462       Cr468   2.203       .  S
O462        C463   1.333       .  A
C463        O464   1.277       .  A
O464       Cr469   1.873       .  S
O465       Cr469   2.168       .  S
O465        C466   1.328       .  A
Cr467       O470   1.610       .  S
Cr468       O470   1.610       .  S
Cr469       O470   1.604       .  S
O471       Cr489   2.095       .  S
O471        C479   1.297       .  A
O472      Cr1125   1.993   1_545  S
O472       C1745   1.276       .  A
C473       C1712   1.510       .  S
C473       O1744   1.276       .  A
C473        O474   1.296   1_655  A
O474       Cr490   2.083       .  S
O475       Cr490   1.955       .  S
O475        C476   1.268       .  A
C476       O1113   1.289   1_545  A
O477      Cr1763   2.074   1_455  S
O477       C1112   1.289       .  A
O478       Cr491   1.951       .  S
O478        C479   1.265       .  A
O480       Cr489   1.894       .  S
O480        C488   1.290       .  A
O481      Cr1125   2.260   1_545  S
O481       C1754   1.347       .  A
C482       O1753   1.347   1_455  A
C482        O483   1.276       .  A
O483       Cr490   1.868       .  S
O484       Cr490   2.212       .  S
O484       C1121   1.336   1_545  A
C485       O1120   1.336       .  A
C485        O486   1.278       .  A
O486      Cr1763   1.866   1_455  S
O487       Cr491   2.197       .  S
O487        C488   1.332       .  A
Cr489      O1108   1.993       .  S
Cr489      O1117   2.260       .  S
Cr489       O492   1.619       .  S
Cr490      O2400   1.605   1_445  S
Cr491      O1749   2.074       .  S
Cr491      O1758   1.866       .  S
Cr491       O492   1.615       .  S
O492      Cr2398   1.605       .  S
C493        C494   1.399       .  A
C493        C498   1.394       .  A
C493        H500   1.085       .  S
C494        C495   1.407       .  A
C495        C496   1.395       .  A
C495        C502   1.503       .  S
C496        C497   1.396       .  A
C496        H501   1.076       .  S
C497        C498   1.415       .  A
C498        C499   1.507       .  S
C499        H503   1.111       .  S
C499        H504   1.109       .  S
C499        H505   1.106       .  S
C502        H506   1.108       .  S
C502        H507   1.106       .  S
C502        H508   1.110       .  S
C509        C510   1.417       .  A
C509        C514   1.405       .  A
C509        H516   1.082       .  S
C510        C511   1.438       .  A
C511        C512   1.397       .  A
C511        C518   1.515       .  S
C512        C513   1.397       .  A
C512        H517   1.083       .  S
C513        C514   1.394       .  A
C513       C1656   1.497       .  S
C514        C515   1.495       .  S
C515        H519   1.098       .  S
C515       H1792   1.108       .  S
C515       H1793   1.109       .  S
C518        H522   1.110       .  S
C518        H523   1.111       .  S
C518        H524   1.108       .  S
H520       C1787   1.108       .  S
H521       C1787   1.109       .  S
C525        C526   1.416   1_565  A
C525        C530   1.399   1_565  A
C525       H1168   1.084       .  S
C526        C527   1.428       .  A
C526       C1029   1.500   1_545  S
C527        C528   1.398       .  A
C527        C534   1.510       .  S
C528        C529   1.398       .  A
C528        H533   1.086       .  S
C529        C530   1.399       .  A
C530        C531   1.503       .  S
C531        H535   1.110       .  S
C531        H536   1.110   1_545  S
C531        H537   1.110       .  S
H532       C1161   1.084       .  S
C534        H538   1.097       .  S
C534        H539   1.105       .  S
C534        H540   1.111       .  S
C541        C542   1.406       .  A
C541        C546   1.403       .  A
C541        H548   1.084       .  S
C542        C543   1.411       .  A
C543        C544   1.379       .  A
C543        C550   1.510       .  S
C544        C545   1.405       .  A
C544        H549   1.084       .  S
C545        C546   1.411       .  A
C546        C547   1.507       .  S
C547        H551   1.111       .  S
C547        H552   1.108       .  S
C547        H553   1.110       .  S
C550        H554   1.106       .  S
C550        H555   1.109       .  S
C550        H556   1.109       .  S
C557        C558   1.410       .  A
C557        C562   1.381       .  A
C557       H1200   1.085       .  S
C558        C559   1.412       .  A
C558       C1069   1.482       .  S
C559        C560   1.407       .  A
C559        C566   1.505       .  S
C560        C561   1.411       .  A
C560        H565   1.080       .  S
C561        C562   1.409       .  A
C562        C563   1.513       .  S
C563        H567   1.109       .  S
C563        H568   1.109       .  S
C563        H569   1.110       .  S
H564       C1193   1.085       .  S
C566        H570   1.108       .  S
C566        H571   1.110       .  S
C566        H572   1.111       .  S
C573        C574   1.401       .  A
C573        C578   1.381       .  A
C573        H580   1.080       .  S
C574        C575   1.414       .  A
C575        C576   1.403       .  A
C575        C582   1.505       .  S
C576        C577   1.404       .  A
C576        H581   1.084       .  S
C577        C578   1.421       .  A
C577       C1716   1.468   1_455  S
C578       C1851   1.520       .  S
C579       C1850   1.520       .  S
C579        H583   1.110       .  S
C579        H584   1.103       .  S
C579        H585   1.098       .  S
C582        H586   1.110       .  S
C582        H587   1.110       .  S
C582        H588   1.108       .  S
C589        H596   1.083       .  S
C590        C591   1.438       .  A
C591        C592   1.386   1_554  A
C591        C598   1.509       .  S
C592        C593   1.383       .  A
C592        H597   1.086       .  S
C593        C594   1.403   1_556  A
C595        H599   1.110       .  S
C595        H601   1.108       .  S
C598        H602   1.094       .  S
C598        H604   1.111   1_554  S
C605       C1560   1.407       .  A
C605        C610   1.401       .  A
C605        H612   1.084       .  S
C606       C1559   1.407       .  A
C606        C607   1.426   1_655  A
C607        C608   1.382   1_455  A
C607        C614   1.510       .  S
C608        C609   1.393       .  A
C608        H613   1.088   1_654  S
C609       C1564   1.404       .  A
C610       C1563   1.404       .  A
C610        C611   1.494       .  S
C611        H615   1.108       .  S
C611        H617   1.108       .  S
C614        H618   1.091       .  S
C614        H619   1.111       .  S
C614        H620   1.106       .  S
C621       C1258   1.388       .  A
C621        C626   1.382       .  A
C621        H628   1.086   1_554  S
C622       C1257   1.388       .  A
C623        C624   1.397       .  A
C623        C630   1.503       .  S
C624        H629   1.082       .  S
C625       C1262   1.425       .  A
C626       C1261   1.425       .  A
C626        C627   1.511       .  S
C627        H631   1.111   1_554  S
C627       H1268   1.099       .  S
C627        H633   1.108       .  S
C630        H634   1.110       .  S
C630       H1271   1.110       .  S
C630        H636   1.103       .  S
H632       C1263   1.099       .  S
H635       C1266   1.110       .  S
C637        C956   1.390       .  A
C637       C1278   1.393       .  A
C637       C1261   1.463       .  S
C638        C955   1.390       .  A
C638        C639   1.390   1_455  A
C638        H643   1.079       .  S
C639       C1276   1.393       .  A
C639        C924   1.474       .  S
C640       C1275   1.393   1_565  A
C640        C959   1.389       .  A
C640        H644   1.078       .  S
C641        C958   1.389       .  A
C641        C642   1.404       .  A
C641       C1226   1.483       .  S
C642       C1273   1.393   1_565  A
C642        H645   1.082       .  S
C646        C647   1.389       .  A
C646        C651   1.378       .  A
C646        C860   1.462       .  S
C647        C648   1.408       .  A
C647        H652   1.081       .  S
C648        C649   1.415       .  A
C648        C892   1.480       .  S
C649        C650   1.398       .  A
C649        H653   1.078       .  S
C650        C651   1.393       .  A
C650        C879   1.481       .  S
C651        H654   1.081       .  S
C655        C656   1.386       .  A
C655        C660   1.395       .  A
C655        C812   1.459       .  S
C656        C657   1.403       .  A
C656        H661   1.084       .  S
C657        C658   1.399       .  A
C657        C847   1.464       .  S
C658        C659   1.413       .  A
C658        H662   1.081       .  S
C659        C660   1.392       .  A
C659        C828   1.492       .  S
C660        H663   1.075       .  S
C664        C665   1.391       .  A
C664        C669   1.449       .  A
C664        C769   1.496       .  S
C665        C666   1.369       .  A
C665        H670   1.083       .  S
C666        C985   1.389       .  A
C666        C911   1.449       .  S
C667        C984   1.389       .  A
C667        C668   1.395       .  A
C667        H671   1.085       .  S
C668        C987   1.439       .  A
C668        C732   1.522       .  S
C669        C986   1.439       .  A
C669        H672   1.080       .  S
C673        C674   1.400       .  A
C673        C678   1.423       .  A
C673        C778   1.497       .  S
C674        C675   1.394       .  A
C674        H679   1.083       .  S
C675        C676   1.400       .  A
C675        C863   1.471       .  S
C676        C677   1.404       .  A
C676        H680   1.084       .  S
C677        C678   1.426       .  A
C677        C797   1.487       .  S
C678        H681   1.083       .  S
C682        C683   1.382       .  A
C682        C687   1.437       .  A
C682        C723   1.494       .  S
C683        C684   1.376       .  A
C683        H688   1.085       .  S
C684        C685   1.405       .  A
C684        C815   1.462       .  S
C685        C686   1.413       .  A
C685        H689   1.083       .  S
C686        C687   1.437       .  A
C686        C806   1.525       .  S
C687        H690   1.081       .  S
C691        C692   1.393       .  A
C691        C696   1.419       .  A
C691        C775   1.465       .  S
C692        C693   1.382       .  A
C692        H697   1.085       .  S
C693        C940   1.440       .  S
C694        C695   1.385   1_544  A
C694        H698   1.087   1_545  S
C695        C729   1.470       .  S
C696        H699   1.075       .  S
C700        C701   1.401       .  A
C700        C705   1.444       .  A
C700        C800   1.528       .  S
C701        C702   1.419       .  A
C701       H1978   1.082       .  S
C702        C703   1.395       .  A
C702       C2103   1.497       .  S
C703        C704   1.386       .  A
C703        H707   1.083       .  S
C704        C705   1.440       .  A
C704        C726   1.516       .  S
C705        H708   1.075       .  S
H706       C1973   1.082       .  S
C709        C710   1.398       .  A
C709        C714   1.424       .  A
C709        C803   1.501       .  S
C710        C711   1.402       .  A
C710        H715   1.074   1_565  S
C711        C712   1.410       .  A
C712        C713   1.397       .  A
C712        H716   1.082       .  S
C713        C714   1.430       .  A
C713        C720   1.507       .  S
C714        H717   1.083       .  S
O718       Cr736   2.211       .  S
O718        C726   1.338       .  A
O719       Cr736   1.871       .  S
O719        C720   1.274       .  A
C720        O721   1.331       .  A
O721       Cr737   2.206       .  S
O722       Cr737   1.859       .  S
O722        C723   1.277       .  A
C723        O724   1.339       .  A
O724       Cr738   2.207       .  S
O725       Cr738   1.889       .  S
O725        C726   1.281       .  A
O727       Cr736   1.959       .  S
O727        C735   1.262   1_554  A
O728       Cr736   2.054       .  S
O728        C729   1.290   1_554  A
C729        O730   1.263   1_556  A
O730       Cr737   1.954       .  S
O731       Cr737   2.050   1_556  S
O731        C732   1.292       .  A
C732        O733   1.280       .  A
O733       Cr738   2.028   1_556  S
O734       Cr738   2.084       .  S
O734        C735   1.301   1_554  A
C735        C744   1.488       .  S
Cr736       O739   1.609       .  S
Cr737       O739   1.616       .  S
Cr738       O739   1.617       .  S
C740        C741   1.411       .  A
C740       C2017   1.436       .  A
C740        C772   1.506       .  S
C741       C2014   1.399       .  A
C741        H746   1.084       .  S
C742       C2013   1.399       .  A
C742       C1061   1.388       .  A
C742        C927   1.458       .  S
C743       C1060   1.388       .  A
C743        C744   1.382   1_654  A
C743        H747   1.089   1_655  S
C744       C1063   1.424   1_455  A
C745       C2012   1.436       .  A
C745       C1062   1.424   1_655  A
C745        H748   1.079       .  S
C749        C750   1.416       .  A
C749        C754   1.426       .  A
C749        C794   1.487       .  S
C750        C751   1.408       .  A
C751        C752   1.385       .  A
C752        C753   1.375       .  A
C752        H756   1.081       .  S
C753        C754   1.403       .  A
C753        C784   1.471       .  S
C754        H757   1.083       .  S
C758        C759   1.441       .  A
C758        C763   1.413       .  A
C758       C2063   1.510       .  S
C759        C760   1.431       .  A
C759        H764   1.082       .  S
C760        C761   1.382       .  A
C760        C781   1.491       .  S
C761        C762   1.375       .  A
C761        H765   1.081       .  S
C762        C763   1.399       .  A
C762       C2167   1.468       .  S
C763        H766   1.083       .  S
O767       Cr785   2.034       .  S
O767        C775   1.286       .  A
O768       Cr785   1.967       .  S
O768        C769   1.260       .  A
C769        O770   1.297       .  A
O770       Cr786   2.059       .  S
O771       Cr786   1.996       .  S
O771        C772   1.276       .  A
C772        O773   1.294       .  A
O773       Cr787   2.066       .  S
O774       Cr787   1.963       .  S
O774        C775   1.267       .  A
O776       Cr785   1.858       .  S
O776        C784   1.277       .  A
O777       Cr785   2.162       .  S
O777        C778   1.326       .  A
C778        O779   1.286       .  A
O779       Cr786   1.879       .  S
O780       Cr786   2.203       .  S
O780        C781   1.333       .  A
C781        O782   1.277       .  A
O782       Cr787   1.873       .  S
O783       Cr787   2.168       .  S
O783        C784   1.328       .  A
Cr785       O788   1.610       .  S
Cr786       O788   1.610       .  S
Cr787       O788   1.604       .  S
O789       Cr807   2.095       .  S
O789        C797   1.297       .  A
O790       C2063   1.276       .  A
C791       C2030   1.510       .  S
C791       O2062   1.276       .  A
C791        O792   1.296   1_655  A
O792       Cr808   2.083       .  S
O793       Cr808   1.955       .  S
O793        C794   1.268       .  A
O795      Cr2081   2.074   1_455  S
O796       Cr809   1.951       .  S
O796        C797   1.265       .  A
O798       Cr807   1.895       .  S
O798        C806   1.290       .  A
O799       C2072   1.347       .  A
C800       O2071   1.347   1_455  A
C800        O801   1.276       .  A
O801       Cr808   1.868       .  S
O802       Cr808   2.212       .  S
C803        O804   1.278       .  A
O804      Cr2081   1.866   1_455  S
O805       Cr809   2.197       .  S
O805        C806   1.332       .  A
Cr807       O810   1.619       .  S
Cr808      O1446   1.605   1_455  S
Cr809      O2067   2.074       .  S
Cr809      O2076   1.866       .  S
Cr809       O810   1.615       .  S
O810      Cr1444   1.605   1_565  S
C811        C812   1.399       .  A
C811        C816   1.394       .  A
C811        H818   1.085       .  S
C812        C813   1.407       .  A
C813        C814   1.395       .  A
C813        C820   1.503       .  S
C814        C815   1.396       .  A
C814        H819   1.076       .  S
C815        C816   1.415       .  A
C816        C817   1.507       .  S
C817        H821   1.111       .  S
C817        H822   1.109       .  S
C817        H823   1.106       .  S
C820        H824   1.108       .  S
C820        H825   1.106       .  S
C820        H826   1.110       .  S
C827        C828   1.417       .  A
C827        C832   1.405       .  A
C827        H834   1.082       .  S
C828        C829   1.438       .  A
C829        C830   1.397       .  A
C829        C836   1.515       .  S
C830        C831   1.397       .  A
C830        H835   1.083       .  S
C831        C832   1.394       .  A
C831       C1974   1.497       .  S
C832        C833   1.495       .  S
C833        H837   1.098       .  S
C833       H2110   1.108       .  S
C833       H2111   1.109       .  S
C836        H840   1.110       .  S
C836        H841   1.111       .  S
C836        H842   1.108       .  S
H838       C2105   1.108       .  S
H839       C2105   1.109       .  S
C843        C844   1.416       .  A
C843        C848   1.399       .  A
C844        C845   1.428       .  A
C845        C846   1.398       .  A
C845        C852   1.510       .  S
C846        C847   1.398       .  A
C846        H851   1.086       .  S
C847        C848   1.399       .  A
C848        C849   1.503       .  S
C849        H853   1.110       .  S
C849        H854   1.110       .  S
C849        H855   1.110       .  S
C852        H856   1.097       .  S
C852        H857   1.105       .  S
C852        H858   1.111       .  S
C859        C860   1.406       .  A
C859        C864   1.403       .  A
C859        H866   1.084       .  S
C860        C861   1.411       .  A
C861        C862   1.379       .  A
C861        C868   1.510       .  S
C862        C863   1.405       .  A
C862        H867   1.084       .  S
C863        C864   1.411       .  A
C864        C865   1.507       .  S
C865        H869   1.111       .  S
C865        H870   1.108       .  S
C865        H871   1.110       .  S
C868        H872   1.106       .  S
C868        H873   1.109       .  S
C868        H874   1.109       .  S
C875        C876   1.410       .  A
C875        C880   1.381       .  A
C876        C877   1.412       .  A
C877        C878   1.407       .  A
C877        C884   1.505       .  S
C878        C879   1.411       .  A
C878        H883   1.080       .  S
C879        C880   1.409       .  A
C880        C881   1.513       .  S
C881        H885   1.109       .  S
C881        H886   1.109       .  S
C881        H887   1.110       .  S
C884        H888   1.108       .  S
C884        H889   1.110       .  S
C884        H890   1.111       .  S
C891        C892   1.401       .  A
C891        C896   1.381       .  A
C891        H898   1.080       .  S
C892        C893   1.414       .  A
C893        C894   1.403       .  A
C893        C900   1.505       .  S
C894        C895   1.404       .  A
C894        H899   1.084       .  S
C895        C896   1.421       .  A
C895       C2034   1.468   1_455  S
C896       C2169   1.520       .  S
C897       C2168   1.520       .  S
C897        H901   1.110       .  S
C897        H902   1.103       .  S
C897        H903   1.098       .  S
C900        H904   1.110       .  S
C900        H905   1.110       .  S
C900        H906   1.108       .  S
C907       C1226   1.406       .  A
C907       C1230   1.391       .  A
C907        H914   1.083       .  S
C908       C1225   1.406       .  A
C908        C909   1.438       .  A
C908        C959   1.483       .  S
C909        C910   1.386       .  A
C909        C916   1.509   1_565  S
C910        C911   1.383       .  A
C910        H915   1.086       .  S
C911        C912   1.403       .  A
C912       C1225   1.391       .  A
C912       C1231   1.505       .  S
C913       C1230   1.505   1_556  S
C913        H917   1.110   1_556  S
C913       H1236   1.110       .  S
C913        H919   1.108       .  S
C916        H920   1.094       .  S
C916       H1239   1.107       .  S
C916        H922   1.111       .  S
H918       C1231   1.110       .  S
H921       C1234   1.107       .  S
C923       C2514   1.407       .  A
C923        C928   1.401       .  A
C923        H930   1.084       .  S
C924       C2513   1.407       .  A
C924        C925   1.426   1_655  A
C925        C926   1.382   1_455  A
C925        C932   1.510       .  S
C926        C927   1.393       .  A
C926        H931   1.088   1_655  S
C927       C2518   1.404       .  A
C928       C2517   1.404       .  A
C928        C929   1.494       .  S
C929        H933   1.108       .  S
C929       H1252   1.110       .  S
C929        H935   1.108       .  S
C932        H936   1.091       .  S
C932        H937   1.111       .  S
C932        H938   1.106       .  S
H934       C1247   1.110       .  S
C939        C944   1.382       .  A
C939        H946   1.086       .  S
C940       C1259   1.403       .  A
C941       C1258   1.403       .  A
C941        C942   1.397       .  A
C941        C948   1.503       .  S
C942       C1261   1.404       .  A
C942        H947   1.082       .  S
C943       C1260   1.404       .  A
C943        C955   1.463       .  S
C944        C945   1.511       .  S
C945        H949   1.111       .  S
C945        H951   1.108   1_545  S
C948        H952   1.110       .  S
C948        H954   1.103       .  S
C955       C1596   1.393       .  A
C956        C957   1.390   1_455  A
C956        H961   1.079       .  S
C957       C1594   1.393       .  A
C957       C1242   1.474       .  S
C958       C1593   1.393   1_565  A
C958        H962   1.078       .  S
C959        C960   1.404       .  A
C960       C1591   1.393   1_565  A
C960        H963   1.082       .  S
C964        C965   1.389       .  A
C964        C969   1.378       .  A
C964       C1178   1.462       .  S
C965        C966   1.408       .  A
C965        H970   1.081       .  S
C966        C967   1.415       .  A
C966       C1210   1.480       .  S
C967        C968   1.398       .  A
C967        H971   1.078       .  S
C968        C969   1.393       .  A
C968       C1197   1.481       .  S
C969        H972   1.081       .  S
C973        C974   1.386       .  A
C973        C978   1.395       .  A
C973       C1130   1.459       .  S
C974        C975   1.403       .  A
C974        H979   1.084       .  S
C975        C976   1.399       .  A
C975       C1165   1.464       .  S
C976        C977   1.413       .  A
C976        H980   1.081       .  S
C977        C978   1.392       .  A
C977       C1146   1.492       .  S
C978        H981   1.075       .  S
C982        C983   1.391       .  A
C982        C987   1.449       .  A
C982       C1087   1.496       .  S
C983        C984   1.369       .  A
C983        H988   1.083       .  S
C984       C1229   1.449       .  S
C985        C986   1.395       .  A
C985        H989   1.085       .  S
C986       C1050   1.522       .  S
C987        H990   1.080       .  S
C991        C992   1.400       .  A
C991        C996   1.423       .  A
C991       C1096   1.497       .  S
C992        C993   1.394       .  A
C992        H997   1.083       .  S
C993        C994   1.400       .  A
C993       C1181   1.471       .  S
C994        C995   1.404       .  A
C994        H998   1.084       .  S
C995        C996   1.426       .  A
C995       C1115   1.487       .  S
C996        H999   1.083       .  S
C1000      C1001   1.382       .  A
C1000      C1005   1.437       .  A
C1000      C1041   1.494       .  S
C1001      C1002   1.376       .  A
C1001      H1006   1.085       .  S
C1002      C1003   1.405       .  A
C1002      C1133   1.462       .  S
C1003      C1004   1.413       .  A
C1003      H1007   1.083       .  S
C1004      C1005   1.437       .  A
C1004      C1124   1.525       .  S
C1005      H1008   1.081       .  S
C1009      C1010   1.393       .  A
C1009      C1014   1.419       .  A
C1009      C1093   1.465       .  S
C1010      C1011   1.382   1_556  A
C1010      H1015   1.085       .  S
C1011      C1258   1.440       .  S
C1012      C1013   1.385   1_545  A
C1012      H1016   1.087   1_545  S
C1013      C1047   1.470       .  S
C1014      H1017   1.075       .  S
C1018      C1019   1.401       .  A
C1018      C1023   1.444       .  A
C1018      C1118   1.528       .  S
C1019      C1020   1.419       .  A
C1019      H2296   1.082       .  S
C1020      C1021   1.395       .  A
C1020      C2421   1.497       .  S
C1021      C1022   1.386       .  A
C1021      H1025   1.083       .  S
C1022      C1023   1.440       .  A
C1022      C1044   1.516       .  S
C1023      H1026   1.075       .  S
H1024      C2291   1.082       .  S
C1027      C1028   1.398       .  A
C1027      C1032   1.424       .  A
C1027      C1121   1.501       .  S
C1028      C1029   1.402       .  A
C1028      H1033   1.074   1_565  S
C1029      C1030   1.410       .  A
C1030      C1031   1.397       .  A
C1030      H1034   1.082       .  S
C1031      C1032   1.430       .  A
C1031      C1038   1.507       .  S
C1032      H1035   1.083       .  S
O1036     Cr1054   2.211       .  S
O1036      C1044   1.338       .  A
O1037     Cr1054   1.871       .  S
O1037      C1038   1.274       .  A
C1038      O1039   1.331       .  A
O1039     Cr1055   2.206       .  S
O1040     Cr1055   1.859       .  S
O1040      C1041   1.277       .  A
C1041      O1042   1.339       .  A
O1042     Cr1056   2.207       .  S
O1043     Cr1056   1.889       .  S
O1043      C1044   1.281       .  A
O1045     Cr1054   1.959       .  S
O1045      C1053   1.262       .  A
O1046     Cr1054   2.054       .  S
O1046      C1047   1.290       .  A
C1047      O1048   1.263       .  A
O1048     Cr1055   1.954       .  S
O1049     Cr1055   2.050       .  S
O1049      C1050   1.292       .  A
C1050      O1051   1.280       .  A
O1051     Cr1056   2.028       .  S
O1052     Cr1056   2.084       .  S
O1052      C1053   1.301       .  A
C1053      C1062   1.488       .  S
Cr1054     O1057   1.609       .  S
Cr1055     O1057   1.616       .  S
Cr1056     O1057   1.617       .  S
C1058      C1059   1.411       .  A
C1058      C2335   1.436       .  A
C1058      C1090   1.506       .  S
C1059      C2332   1.399   1_556  A
C1059      H1064   1.084       .  S
C1060      C2331   1.399   1_554  A
C1060      C1245   1.458       .  S
C1061      C1062   1.382   1_655  A
C1061      H1065   1.089   1_655  S
C1063      C2330   1.436       .  A
C1063      H1066   1.079       .  S
C1067      C1068   1.416       .  A
C1067      C1072   1.426       .  A
C1067      C1112   1.487       .  S
C1068      C1069   1.408       .  A
C1069      C1070   1.385       .  A
C1070      C1071   1.375       .  A
C1070      H1074   1.081       .  S
C1071      C1072   1.403       .  A
C1071      C1102   1.471       .  S
C1072      H1075   1.083       .  S
C1076      C1077   1.441       .  A
C1076      C1081   1.413       .  A
C1076      C2381   1.510       .  S
C1077      C1078   1.431       .  A
C1077      H1082   1.082       .  S
C1078      C1079   1.382       .  A
C1078      C1099   1.491       .  S
C1079      C1080   1.375       .  A
C1079      H1083   1.081       .  S
C1080      C1081   1.399       .  A
C1080      C2485   1.468       .  S
C1081      H1084   1.083       .  S
O1085     Cr1103   2.034       .  S
O1085      C1093   1.286       .  A
O1086     Cr1103   1.967       .  S
O1086      C1087   1.260       .  A
C1087      O1088   1.297       .  A
O1088     Cr1104   2.059       .  S
O1089     Cr1104   1.996       .  S
O1089      C1090   1.276       .  A
C1090      O1091   1.294       .  A
O1091     Cr1105   2.066       .  S
O1092     Cr1105   1.963       .  S
O1092      C1093   1.267       .  A
O1094     Cr1103   1.858       .  S
O1094      C1102   1.277       .  A
O1095     Cr1103   2.162       .  S
O1095      C1096   1.326       .  A
C1096      O1097   1.286       .  A
O1097     Cr1104   1.879       .  S
O1098     Cr1104   2.203       .  S
O1098      C1099   1.333       .  A
C1099      O1100   1.277       .  A
O1100     Cr1105   1.873       .  S
O1101     Cr1105   2.168       .  S
O1101      C1102   1.328       .  A
Cr1103     O1106   1.610       .  S
Cr1104     O1106   1.610       .  S
Cr1105     O1106   1.604       .  S
O1107     Cr1125   2.095       .  S
O1107      C1115   1.297       .  A
O1108      C2381   1.276       .  A
C1109      C2348   1.510       .  S
C1109      O2380   1.276       .  A
C1109      O1110   1.296   1_655  A
O1110     Cr1126   2.083       .  S
O1111     Cr1126   1.955       .  S
O1111      C1112   1.268       .  A
O1113     Cr2399   2.074   1_455  S
O1114     Cr1127   1.951       .  S
O1114      C1115   1.265       .  A
O1116     Cr1125   1.895       .  S
O1116      C1124   1.290       .  A
O1117      C2390   1.347       .  A
C1118      O2389   1.347   1_455  A
C1118      O1119   1.276       .  A
O1119     Cr1126   1.868       .  S
O1120     Cr1126   2.212       .  S
C1121      O1122   1.278       .  A
O1122     Cr2399   1.866   1_455  S
O1123     Cr1127   2.197       .  S
O1123      C1124   1.332       .  A
Cr1125     O1128   1.619       .  S
Cr1126     O1764   1.605   1_455  S
Cr1127     O2385   2.074       .  S
Cr1127     O2394   1.866       .  S
Cr1127     O1128   1.615       .  S
O1128     Cr1762   1.605   1_565  S
C1129      C1130   1.399       .  A
C1129      C1134   1.394       .  A
C1129      H1136   1.085       .  S
C1130      C1131   1.407       .  A
C1131      C1132   1.395       .  A
C1131      C1138   1.503       .  S
C1132      C1133   1.396       .  A
C1132      H1137   1.076       .  S
C1133      C1134   1.415       .  A
C1134      C1135   1.507       .  S
C1135      H1139   1.111       .  S
C1135      H1140   1.109       .  S
C1135      H1141   1.106       .  S
C1138      H1142   1.108       .  S
C1138      H1143   1.106       .  S
C1138      H1144   1.110       .  S
C1145      C1146   1.417       .  A
C1145      C1150   1.405       .  A
C1145      H1152   1.082       .  S
C1146      C1147   1.438       .  A
C1147      C1148   1.397       .  A
C1147      C1154   1.515       .  S
C1148      C1149   1.397       .  A
C1148      H1153   1.083       .  S
C1149      C1150   1.394       .  A
C1149      C2292   1.497       .  S
C1150      C1151   1.495       .  S
C1151      H1155   1.098       .  S
C1151      H2428   1.108       .  S
C1151      H2429   1.109       .  S
C1154      H1158   1.110       .  S
C1154      H1159   1.111       .  S
C1154      H1160   1.108       .  S
H1156      C2423   1.108       .  S
H1157      C2423   1.109       .  S
C1161      C1162   1.416       .  A
C1161      C1166   1.399       .  A
C1162      C1163   1.428       .  A
C1163      C1164   1.398       .  A
C1163      C1170   1.510       .  S
C1164      C1165   1.398       .  A
C1164      H1169   1.086       .  S
C1165      C1166   1.399       .  A
C1166      C1167   1.503       .  S
C1167      H1171   1.110       .  S
C1167      H1172   1.110       .  S
C1167      H1173   1.110       .  S
C1170      H1174   1.097       .  S
C1170      H1175   1.105       .  S
C1170      H1176   1.111       .  S
C1177      C1178   1.406       .  A
C1177      C1182   1.403       .  A
C1177      H1184   1.084       .  S
C1178      C1179   1.411       .  A
C1179      C1180   1.379       .  A
C1179      C1186   1.510       .  S
C1180      C1181   1.405       .  A
C1180      H1185   1.084       .  S
C1181      C1182   1.411       .  A
C1182      C1183   1.507       .  S
C1183      H1187   1.111       .  S
C1183      H1188   1.108       .  S
C1183      H1189   1.110       .  S
C1186      H1190   1.106       .  S
C1186      H1191   1.109       .  S
C1186      H1192   1.109       .  S
C1193      C1194   1.410       .  A
C1193      C1198   1.381       .  A
C1194      C1195   1.412       .  A
C1195      C1196   1.407       .  A
C1195      C1202   1.505       .  S
C1196      C1197   1.411       .  A
C1196      H1201   1.080       .  S
C1197      C1198   1.409       .  A
C1198      C1199   1.513       .  S
C1199      H1203   1.109       .  S
C1199      H1204   1.109       .  S
C1199      H1205   1.110       .  S
C1202      H1206   1.108       .  S
C1202      H1207   1.110       .  S
C1202      H1208   1.111       .  S
C1209      C1210   1.401       .  A
C1209      C1214   1.381       .  A
C1209      H1216   1.080       .  S
C1210      C1211   1.414       .  A
C1211      C1212   1.403       .  A
C1211      C1218   1.505       .  S
C1212      C1213   1.404       .  A
C1212      H1217   1.084       .  S
C1213      C1214   1.421       .  A
C1213      C2352   1.468   1_455  S
C1214      C2487   1.520       .  S
C1215      C2486   1.520       .  S
C1215      H1219   1.110       .  S
C1215      H1220   1.103       .  S
C1215      H1221   1.098       .  S
C1218      H1222   1.110       .  S
C1218      H1223   1.110       .  S
C1218      H1224   1.108       .  S
C1225      H1232   1.083       .  S
C1226      C1227   1.438       .  A
C1227      C1228   1.386   1_554  A
C1227      C1234   1.509   1_565  S
C1228      C1229   1.383       .  A
C1228      H1233   1.086       .  S
C1229      C1230   1.403   1_556  A
C1231      H1235   1.110       .  S
C1231      H1237   1.108       .  S
C1234      H1238   1.094       .  S
C1234      H1240   1.111   1_554  S
C1241      C2196   1.407       .  A
C1241      C1246   1.401       .  A
C1241      H1248   1.084       .  S
C1242      C2195   1.407       .  A
C1242      C1243   1.426   1_655  A
C1243      C1244   1.382   1_455  A
C1243      C1250   1.510       .  S
C1244      C1245   1.393       .  A
C1244      H1249   1.088   1_654  S
C1245      C2200   1.404       .  A
C1246      C2199   1.404       .  A
C1246      C1247   1.494       .  S
C1247      H1251   1.108       .  S
C1247      H1253   1.108       .  S
C1250      H1254   1.091       .  S
C1250      H1255   1.111       .  S
C1250      H1256   1.106       .  S
C1257      C1262   1.382       .  A
C1257      H1264   1.086   1_554  S
C1259      C1260   1.397       .  A
C1259      C1266   1.503       .  S
C1260      H1265   1.082       .  S
C1262      C1263   1.511       .  S
C1263      H1267   1.111   1_554  S
C1263      H1269   1.108   1_545  S
C1266      H1270   1.110       .  S
C1266      H1272   1.103       .  S
C1273      C1592   1.390       .  A
C1273      C1897   1.463       .  S
C1274      C1591   1.390       .  A
C1274      C1275   1.390       .  A
C1274      H1279   1.079       .  S
C1275      C1560   1.474       .  S
C1276      C1595   1.389       .  A
C1276      H1280   1.078       .  S
C1277      C1594   1.389       .  A
C1277      C1278   1.404   1_655  A
C1277      C1862   1.483       .  S
C1278      H1281   1.082       .  S
C1282      C1283   1.389       .  A
C1282      C1287   1.378       .  A
C1282      C1496   1.462       .  S
C1283      C1284   1.408       .  A
C1283      H1288   1.081       .  S
C1284      C1285   1.415       .  A
C1284      C1528   1.480       .  S
C1285      C1286   1.398       .  A
C1285      H1289   1.078       .  S
C1286      C1287   1.393       .  A
C1286      C1515   1.481       .  S
C1287      H1290   1.081       .  S
C1291      C1292   1.386       .  A
C1291      C1296   1.395       .  A
C1291      C1448   1.459       .  S
C1292      C1293   1.403       .  A
C1292      H1297   1.084       .  S
C1293      C1294   1.399       .  A
C1293      C1483   1.464       .  S
C1294      C1295   1.413       .  A
C1294      H1298   1.081       .  S
C1295      C1296   1.392       .  A
C1295      C1464   1.492       .  S
C1296      H1299   1.075       .  S
C1300      C1301   1.391       .  A
C1300      C1305   1.449       .  A
C1300      C1405   1.496       .  S
C1301      C1302   1.369       .  A
C1301      H1306   1.083       .  S
C1302      C1621   1.389       .  A
C1302      C1547   1.449       .  S
C1303      C1620   1.389       .  A
C1303      C1304   1.395       .  A
C1303      H1307   1.085       .  S
C1304      C1623   1.439       .  A
C1304      C1368   1.522       .  S
C1305      C1622   1.439       .  A
C1305      H1308   1.080       .  S
C1309      C1310   1.400       .  A
C1309      C1314   1.423       .  A
C1309      C1414   1.497       .  S
C1310      C1311   1.394       .  A
C1310      H1315   1.083       .  S
C1311      C1312   1.400       .  A
C1311      C1499   1.471       .  S
C1312      C1313   1.404       .  A
C1312      H1316   1.084       .  S
C1313      C1314   1.426       .  A
C1313      C1433   1.487       .  S
C1314      H1317   1.083       .  S
C1318      C1319   1.382       .  A
C1318      C1323   1.437       .  A
C1318      C1359   1.494       .  S
C1319      C1320   1.376       .  A
C1319      H1324   1.085       .  S
C1320      C1321   1.405       .  A
C1320      C1451   1.462       .  S
C1321      C1322   1.413       .  A
C1321      H1325   1.083       .  S
C1322      C1323   1.437       .  A
C1322      C1442   1.525       .  S
C1323      H1326   1.081       .  S
C1327      C1328   1.393       .  A
C1327      C1332   1.419       .  A
C1327      C1411   1.465       .  S
C1328      C1329   1.382       .  A
C1328      H1333   1.085       .  S
C1329      C2284   1.391       .  A
C1329      C1576   1.440       .  S
C1330      C2283   1.391       .  A
C1330      C1331   1.385   1_554  A
C1330      H1334   1.087       .  S
C1331      C2286   1.412       .  A
C1331      C1365   1.470       .  S
C1332      C2285   1.412   1_545  A
C1332      H1335   1.075   1_545  S
C1336      C1337   1.401       .  A
C1336      C1341   1.444       .  A
C1336      C1436   1.528       .  S
C1337      C1338   1.419       .  A
C1338      C1339   1.395       .  A
C1339      C1340   1.386       .  A
C1339      H1343   1.083       .  S
C1340      C1341   1.440       .  A
C1340      C1362   1.516       .  S
C1341      H1344   1.075       .  S
C1345      C1346   1.398       .  A
C1345      C1350   1.424       .  A
C1345      C1439   1.501       .  S
C1346      C1347   1.402       .  A
C1346      H1351   1.074       .  S
C1347      C1348   1.410       .  A
C1347      C2116   1.500       .  S
C1348      C1349   1.397       .  A
C1348      H1352   1.082       .  S
C1349      C1350   1.430       .  A
C1349      C1356   1.507       .  S
C1350      H1353   1.083       .  S
O1354     Cr1372   2.211       .  S
O1354      C1362   1.338       .  A
O1355     Cr1372   1.871       .  S
O1355      C1356   1.274       .  A
C1356      O1357   1.331       .  A
O1357     Cr1373   2.206       .  S
O1358     Cr1373   1.859       .  S
O1358      C1359   1.277       .  A
C1359      O1360   1.339       .  A
O1360     Cr1374   2.207       .  S
O1361     Cr1374   1.889       .  S
O1361      C1362   1.281       .  A
O1363     Cr1372   1.959       .  S
O1363      C1371   1.262   1_554  A
O1364     Cr1372   2.054       .  S
O1364      C1365   1.290   1_554  A
C1365      O1366   1.263   1_556  A
O1366     Cr1373   1.954       .  S
O1367     Cr1373   2.050   1_556  S
O1367      C1368   1.292       .  A
C1368      O1369   1.280       .  A
O1369     Cr1374   2.028   1_556  S
O1370     Cr1374   2.084       .  S
O1370      C1371   1.301   1_554  A
C1371      C1380   1.488       .  S
Cr1372     O1375   1.609       .  S
Cr1373     O1375   1.616       .  S
Cr1374     O1375   1.617       .  S
C1376      C1377   1.411       .  A
C1376      C1408   1.506       .  S
C1377      H1382   1.084       .  S
C1378      C1697   1.388       .  A
C1378      C1563   1.458       .  S
C1379      C1696   1.388       .  A
C1379      C1380   1.382   1_554  A
C1379      H1383   1.089       .  S
C1380      C1699   1.424       .  A
C1381      C1698   1.424       .  A
C1381      H1384   1.079       .  S
C1385      C1386   1.416   1_545  A
C1385      C1390   1.426       .  A
C1385      C1430   1.487       .  S
C1386      C1387   1.408       .  A
C1386      H2027   1.081       .  S
C1387      C1388   1.385   1_565  A
C1387      C2148   1.482       .  S
C1388      C1389   1.375       .  A
C1388      H1392   1.081       .  S
C1389      C1390   1.403       .  A
C1389      C1420   1.471       .  S
C1390      H1393   1.083       .  S
H1391      C2022   1.081       .  S
C1394      C1395   1.441       .  A
C1394      C1399   1.413       .  A
C1395      C1396   1.431       .  A
C1395      H1400   1.082       .  S
C1396      C1397   1.382       .  A
C1396      C1417   1.491       .  S
C1397      C1398   1.375       .  A
C1397      H1401   1.081       .  S
C1398      C1399   1.399       .  A
C1399      H1402   1.083   1_655  S
O1403     Cr1421   2.034       .  S
O1403      C1411   1.286       .  A
O1404     Cr1421   1.967       .  S
O1404      C1405   1.260       .  A
C1405      O1406   1.297       .  A
O1406     Cr1422   2.059       .  S
O1407     Cr1422   1.996       .  S
O1407      C1408   1.276       .  A
C1408      O1409   1.294       .  A
O1409     Cr1423   2.066       .  S
O1410     Cr1423   1.963       .  S
O1410      C1411   1.267       .  A
O1412     Cr1421   1.858       .  S
O1412      C1420   1.277       .  A
O1413     Cr1421   2.162       .  S
O1413      C1414   1.326       .  A
C1414      O1415   1.286       .  A
O1415     Cr1422   1.879       .  S
O1416     Cr1422   2.203       .  S
O1416      C1417   1.333       .  A
C1417      O1418   1.277       .  A
O1418     Cr1423   1.873       .  S
O1419     Cr1423   2.168       .  S
O1419      C1420   1.328       .  A
Cr1421     O1424   1.610       .  S
Cr1422     O1424   1.610       .  S
Cr1423     O1424   1.604       .  S
O1425     Cr1443   2.095       .  S
O1425      C1433   1.297       .  A
O1426     Cr2079   1.993   1_545  S
C1427      O1428   1.296       .  A
O1428     Cr1444   2.083       .  S
O1429     Cr1444   1.955       .  S
O1429      C1430   1.268       .  A
C1430      O2067   1.289   1_545  A
O1431      C2066   1.289       .  A
O1432     Cr1445   1.951       .  S
O1432      C1433   1.265       .  A
O1434     Cr1443   1.894       .  S
O1434      C1442   1.290       .  A
O1435     Cr2079   2.260   1_545  S
C1436      O1437   1.276       .  A
O1437     Cr1444   1.868       .  S
O1438     Cr1444   2.212       .  S
O1438      C2075   1.336   1_545  A
C1439      O2074   1.336       .  A
C1439      O1440   1.278       .  A
O1441     Cr1445   2.197       .  S
O1441      C1442   1.332       .  A
Cr1443     O2062   1.993       .  S
Cr1443     O2071   2.260       .  S
Cr1443     O1446   1.619       .  S
Cr1445     O1446   1.615       .  S
C1447      C1448   1.399       .  A
C1447      C1452   1.394       .  A
C1447      H1454   1.085       .  S
C1448      C1449   1.407       .  A
C1449      C1450   1.395       .  A
C1449      C1456   1.503       .  S
C1450      C1451   1.396       .  A
C1450      H1455   1.076       .  S
C1451      C1452   1.415       .  A
C1452      C1453   1.507       .  S
C1453      H1457   1.111       .  S
C1453      H1458   1.109       .  S
C1453      H1459   1.106       .  S
C1456      H1460   1.108       .  S
C1456      H1461   1.106       .  S
C1456      H1462   1.110       .  S
C1463      C1464   1.417       .  A
C1463      C1468   1.405   1_655  A
C1463      H1470   1.082       .  S
C1464      C1465   1.438       .  A
C1465      C1466   1.397   1_655  A
C1465      C1472   1.515       .  S
C1466      C1467   1.397       .  A
C1466      H1471   1.083       .  S
C1467      C1468   1.394       .  A
C1468      C1469   1.495       .  S
C1469      H1473   1.098       .  S
C1472      H1476   1.110       .  S
C1472      H1477   1.111   1_655  S
C1472      H1478   1.108       .  S
C1479      C1480   1.416   1_565  A
C1479      C1484   1.399   1_565  A
C1479      H2122   1.084       .  S
C1480      C1481   1.428       .  A
C1480      C1983   1.500   1_545  S
C1481      C1482   1.398       .  A
C1481      C1488   1.510       .  S
C1482      C1483   1.398       .  A
C1482      H1487   1.086       .  S
C1483      C1484   1.399       .  A
C1484      C1485   1.503       .  S
C1485      H1489   1.110       .  S
C1485      H1490   1.110   1_545  S
C1485      H1491   1.110       .  S
H1486      C2115   1.084       .  S
C1488      H1492   1.097       .  S
C1488      H1493   1.105       .  S
C1488      H1494   1.111       .  S
C1495      C1496   1.406       .  A
C1495      C1500   1.403       .  A
C1495      H1502   1.084       .  S
C1496      C1497   1.411       .  A
C1497      C1498   1.379       .  A
C1497      C1504   1.510       .  S
C1498      C1499   1.405       .  A
C1498      H1503   1.084       .  S
C1499      C1500   1.411       .  A
C1500      C1501   1.507       .  S
C1501      H1505   1.111       .  S
C1501      H1506   1.108       .  S
C1501      H1507   1.110       .  S
C1504      H1508   1.106       .  S
C1504      H1509   1.109       .  S
C1504      H1510   1.109       .  S
C1511      C1512   1.410       .  A
C1511      C1516   1.381       .  A
C1511      H2154   1.085       .  S
C1512      C1513   1.412       .  A
C1512      C2023   1.482       .  S
C1513      C1514   1.407       .  A
C1513      C1520   1.505       .  S
C1514      C1515   1.411       .  A
C1514      H1519   1.080       .  S
C1515      C1516   1.409       .  A
C1516      C1517   1.513       .  S
C1517      H1521   1.109       .  S
C1517      H1522   1.109       .  S
C1517      H1523   1.110       .  S
H1518      C2147   1.085       .  S
C1520      H1524   1.108       .  S
C1520      H1525   1.110       .  S
C1520      H1526   1.111       .  S
C1527      C1528   1.401       .  A
C1527      C1532   1.381       .  A
C1527      H1534   1.080       .  S
C1528      C1529   1.414       .  A
C1529      C1530   1.403       .  A
C1529      C1536   1.505       .  S
C1530      C1531   1.404       .  A
C1530      H1535   1.084       .  S
C1531      C1532   1.421       .  A
C1533      H1537   1.110       .  S
C1533      H1538   1.103   1_455  S
C1533      H1539   1.098   1_455  S
C1536      H1540   1.110       .  S
C1536      H1541   1.110       .  S
C1536      H1542   1.108       .  S
C1543      C1862   1.406       .  A
C1543      C1866   1.391       .  A
C1543      H1550   1.083       .  S
C1544      C1861   1.406       .  A
C1544      C1545   1.438       .  A
C1544      C1595   1.483       .  S
C1545      C1546   1.386       .  A
C1545      C1552   1.509       .  S
C1546      C1547   1.383       .  A
C1546      H1551   1.086       .  S
C1547      C1548   1.403       .  A
C1548      C1861   1.391       .  A
C1548      C1867   1.505       .  S
C1549      C1866   1.505   1_556  S
C1549      H1553   1.110   1_556  S
C1549      H1872   1.110       .  S
C1549      H1555   1.108       .  S
C1552      H1556   1.094       .  S
C1552      H1875   1.107       .  S
C1552      H1558   1.111       .  S
H1554      C1867   1.110       .  S
H1557      C1870   1.107       .  S
C1559      C1564   1.401       .  A
C1559      H1566   1.084       .  S
C1560      C1561   1.426       .  A
C1561      C1562   1.382       .  A
C1561      C1568   1.510       .  S
C1562      C1563   1.393       .  A
C1562      H1567   1.088       .  S
C1564      C1565   1.494       .  S
C1565      H1569   1.108       .  S
C1565      H1888   1.110       .  S
C1565      H1571   1.108       .  S
C1568      H1572   1.091       .  S
C1568      H1573   1.111       .  S
C1568      H1574   1.106       .  S
H1570      C1883   1.110       .  S
C1575      C2212   1.388       .  A
C1575      C1580   1.382       .  A
C1575      H1582   1.086       .  S
C1576      C2211   1.388       .  A
C1576      C1895   1.403       .  A
C1577      C1894   1.403       .  A
C1577      C1578   1.397       .  A
C1577      C1584   1.503       .  S
C1578      C1897   1.404       .  A
C1578      H1583   1.082       .  S
C1579      C1896   1.404       .  A
C1579      C2216   1.425       .  A
C1579      C1591   1.463       .  S
C1580      C2215   1.425       .  A
C1580      C1581   1.511       .  S
C1581      H1585   1.111       .  S
C1581      H2222   1.099       .  S
C1581      H1587   1.108       .  S
C1584      H1588   1.110       .  S
C1584      H2225   1.110       .  S
C1584      H1590   1.103       .  S
H1586      C2217   1.099       .  S
H1589      C2220   1.110       .  S
C1592      C1593   1.390       .  A
C1592      H1597   1.079       .  S
C1593      C1878   1.474       .  S
C1594      H1598   1.078       .  S
C1595      C1596   1.404   1_655  A
C1596      H1599   1.082       .  S
C1600      C1601   1.389       .  A
C1600      C1605   1.378       .  A
C1600      C1814   1.462       .  S
C1601      C1602   1.408       .  A
C1601      H1606   1.081       .  S
C1602      C1603   1.415       .  A
C1602      C1846   1.480       .  S
C1603      C1604   1.398       .  A
C1603      H1607   1.078       .  S
C1604      C1605   1.393       .  A
C1604      C1833   1.481       .  S
C1605      H1608   1.081       .  S
C1609      C1610   1.386       .  A
C1609      C1614   1.395       .  A
C1609      C1766   1.459       .  S
C1610      C1611   1.403       .  A
C1610      H1615   1.084       .  S
C1611      C1612   1.399       .  A
C1611      C1801   1.464       .  S
C1612      C1613   1.413       .  A
C1612      H1616   1.081       .  S
C1613      C1614   1.392       .  A
C1613      C1782   1.492       .  S
C1614      H1617   1.075       .  S
C1618      C1619   1.391       .  A
C1618      C1623   1.449       .  A
C1618      C1723   1.496       .  S
C1619      C1620   1.369       .  A
C1619      H1624   1.083       .  S
C1620      C1865   1.449       .  S
C1621      C1622   1.395       .  A
C1621      H1625   1.085       .  S
C1622      C1686   1.522       .  S
C1623      H1626   1.080       .  S
C1627      C1628   1.400       .  A
C1627      C1632   1.423       .  A
C1627      C1732   1.497       .  S
C1628      C1629   1.394       .  A
C1628      H1633   1.083       .  S
C1629      C1630   1.400       .  A
C1629      C1817   1.471       .  S
C1630      C1631   1.404       .  A
C1630      H1634   1.084       .  S
C1631      C1632   1.426       .  A
C1631      C1751   1.487       .  S
C1632      H1635   1.083       .  S
C1636      C1637   1.382       .  A
C1636      C1641   1.437       .  A
C1636      C1677   1.494       .  S
C1637      C1638   1.376       .  A
C1637      H1642   1.085       .  S
C1638      C1639   1.405       .  A
C1638      C1769   1.462       .  S
C1639      C1640   1.413       .  A
C1639      H1643   1.083       .  S
C1640      C1641   1.437       .  A
C1640      C1760   1.525       .  S
C1641      H1644   1.081       .  S
C1645      C1646   1.393       .  A
C1645      C1650   1.419       .  A
C1645      C1729   1.465       .  S
C1646      C1647   1.382   1_556  A
C1646      H1651   1.085       .  S
C1647      C1966   1.391       .  A
C1647      C1894   1.440       .  S
C1648      C1965   1.391       .  A
C1648      C1649   1.385       .  A
C1648      H1652   1.087       .  S
C1649      C1968   1.412       .  A
C1649      C1683   1.470       .  S
C1650      C1967   1.412   1_545  A
C1650      H1653   1.075   1_545  S
C1654      C1655   1.401       .  A
C1654      C1659   1.444       .  A
C1654      C1754   1.528       .  S
C1655      C1656   1.419       .  A
C1656      C1657   1.395       .  A
C1657      C1658   1.386       .  A
C1657      H1661   1.083       .  S
C1658      C1659   1.440       .  A
C1658      C1680   1.516       .  S
C1659      H1662   1.075       .  S
C1663      C1664   1.398       .  A
C1663      C1668   1.424       .  A
C1663      C1757   1.501       .  S
C1664      C1665   1.402       .  A
C1664      H1669   1.074       .  S
C1665      C1666   1.410       .  A
C1665      C2434   1.500       .  S
C1666      C1667   1.397       .  A
C1666      H1670   1.082       .  S
C1667      C1668   1.430       .  A
C1667      C1674   1.507       .  S
C1668      H1671   1.083       .  S
O1672     Cr1690   2.211       .  S
O1672      C1680   1.338       .  A
O1673     Cr1690   1.871       .  S
O1673      C1674   1.274       .  A
C1674      O1675   1.331       .  A
O1675     Cr1691   2.206       .  S
O1676     Cr1691   1.859       .  S
O1676      C1677   1.277       .  A
C1677      O1678   1.339       .  A
O1678     Cr1692   2.207       .  S
O1679     Cr1692   1.889       .  S
O1679      C1680   1.281       .  A
O1681     Cr1690   1.959       .  S
O1681      C1689   1.262       .  A
O1682     Cr1690   2.054       .  S
O1682      C1683   1.290       .  A
C1683      O1684   1.263       .  A
O1684     Cr1691   1.954       .  S
O1685     Cr1691   2.050       .  S
O1685      C1686   1.292       .  A
C1686      O1687   1.280       .  A
O1687     Cr1692   2.028       .  S
O1688     Cr1692   2.084       .  S
O1688      C1689   1.301       .  A
C1689      C1698   1.488       .  S
Cr1690     O1693   1.609       .  S
Cr1691     O1693   1.616       .  S
Cr1692     O1693   1.617       .  S
C1694      C1695   1.411       .  A
C1694      C1726   1.506       .  S
C1695      H1700   1.084       .  S
C1696      C1881   1.458       .  S
C1697      C1698   1.382       .  A
C1697      H1701   1.089       .  S
C1699      H1702   1.079       .  S
C1703      C1704   1.416   1_545  A
C1703      C1708   1.426       .  A
C1703      C1748   1.487       .  S
C1704      C1705   1.408       .  A
C1704      H2345   1.081       .  S
C1705      C1706   1.385   1_565  A
C1705      C2466   1.482       .  S
C1706      C1707   1.375       .  A
C1706      H1710   1.081       .  S
C1707      C1708   1.403       .  A
C1707      C1738   1.471       .  S
C1708      H1711   1.083       .  S
H1709      C2340   1.081       .  S
C1712      C1713   1.441       .  A
C1712      C1717   1.413       .  A
C1713      C1714   1.431       .  A
C1713      H1718   1.082       .  S
C1714      C1715   1.382       .  A
C1714      C1735   1.491       .  S
C1715      C1716   1.375       .  A
C1715      H1719   1.081       .  S
C1716      C1717   1.399       .  A
C1717      H1720   1.083   1_655  S
O1721     Cr1739   2.034       .  S
O1721      C1729   1.286       .  A
O1722     Cr1739   1.967       .  S
O1722      C1723   1.260       .  A
C1723      O1724   1.297       .  A
O1724     Cr1740   2.059       .  S
O1725     Cr1740   1.996       .  S
O1725      C1726   1.276       .  A
C1726      O1727   1.294       .  A
O1727     Cr1741   2.066       .  S
O1728     Cr1741   1.963       .  S
O1728      C1729   1.267       .  A
O1730     Cr1739   1.858       .  S
O1730      C1738   1.277       .  A
O1731     Cr1739   2.162       .  S
O1731      C1732   1.326       .  A
C1732      O1733   1.286       .  A
O1733     Cr1740   1.879       .  S
O1734     Cr1740   2.203       .  S
O1734      C1735   1.333       .  A
C1735      O1736   1.277       .  A
O1736     Cr1741   1.873       .  S
O1737     Cr1741   2.168       .  S
O1737      C1738   1.328       .  A
Cr1739     O1742   1.610       .  S
Cr1740     O1742   1.610       .  S
Cr1741     O1742   1.604       .  S
O1743     Cr1761   2.095       .  S
O1743      C1751   1.297       .  A
O1744     Cr2397   1.993   1_545  S
C1745      O1746   1.296       .  A
O1746     Cr1762   2.083       .  S
O1747     Cr1762   1.955       .  S
O1747      C1748   1.268       .  A
C1748      O2385   1.289   1_545  A
O1749      C2384   1.289       .  A
O1750     Cr1763   1.951       .  S
O1750      C1751   1.265       .  A
O1752     Cr1761   1.894       .  S
O1752      C1760   1.290       .  A
O1753     Cr2397   2.260   1_545  S
C1754      O1755   1.276       .  A
O1755     Cr1762   1.868       .  S
O1756     Cr1762   2.212       .  S
O1756      C2393   1.336   1_545  A
C1757      O2392   1.336       .  A
C1757      O1758   1.278       .  A
O1759     Cr1763   2.197       .  S
O1759      C1760   1.332       .  A
Cr1761     O2380   1.993       .  S
Cr1761     O2389   2.260       .  S
Cr1761     O1764   1.619       .  S
Cr1763     O1764   1.615       .  S
C1765      C1766   1.399       .  A
C1765      C1770   1.394       .  A
C1765      H1772   1.085       .  S
C1766      C1767   1.407       .  A
C1767      C1768   1.395       .  A
C1767      C1774   1.503       .  S
C1768      C1769   1.396       .  A
C1768      H1773   1.076       .  S
C1769      C1770   1.415       .  A
C1770      C1771   1.507       .  S
C1771      H1775   1.111       .  S
C1771      H1776   1.109       .  S
C1771      H1777   1.106       .  S
C1774      H1778   1.108       .  S
C1774      H1779   1.106       .  S
C1774      H1780   1.110       .  S
C1781      C1782   1.417       .  A
C1781      C1786   1.405   1_655  A
C1781      H1788   1.082       .  S
C1782      C1783   1.438       .  A
C1783      C1784   1.397   1_655  A
C1783      C1790   1.515       .  S
C1784      C1785   1.397       .  A
C1784      H1789   1.083       .  S
C1785      C1786   1.394       .  A
C1786      C1787   1.495       .  S
C1787      H1791   1.098       .  S
C1790      H1794   1.110       .  S
C1790      H1795   1.111   1_655  S
C1790      H1796   1.108       .  S
C1797      C1798   1.416   1_565  A
C1797      C1802   1.399   1_565  A
C1797      H2440   1.084       .  S
C1798      C1799   1.428       .  A
C1798      C2301   1.500   1_545  S
C1799      C1800   1.398       .  A
C1799      C1806   1.510       .  S
C1800      C1801   1.398       .  A
C1800      H1805   1.086       .  S
C1801      C1802   1.399       .  A
C1802      C1803   1.503       .  S
C1803      H1807   1.110       .  S
C1803      H1808   1.110   1_545  S
C1803      H1809   1.110       .  S
H1804      C2433   1.084       .  S
C1806      H1810   1.097       .  S
C1806      H1811   1.105       .  S
C1806      H1812   1.111       .  S
C1813      C1814   1.406       .  A
C1813      C1818   1.403       .  A
C1813      H1820   1.084       .  S
C1814      C1815   1.411       .  A
C1815      C1816   1.379       .  A
C1815      C1822   1.510       .  S
C1816      C1817   1.405       .  A
C1816      H1821   1.084       .  S
C1817      C1818   1.411       .  A
C1818      C1819   1.507       .  S
C1819      H1823   1.111       .  S
C1819      H1824   1.108       .  S
C1819      H1825   1.110       .  S
C1822      H1826   1.106       .  S
C1822      H1827   1.109       .  S
C1822      H1828   1.109       .  S
C1829      C1830   1.410       .  A
C1829      C1834   1.381       .  A
C1829      H2472   1.085       .  S
C1830      C1831   1.412       .  A
C1830      C2341   1.482       .  S
C1831      C1832   1.407       .  A
C1831      C1838   1.505       .  S
C1832      C1833   1.411       .  A
C1832      H1837   1.080       .  S
C1833      C1834   1.409       .  A
C1834      C1835   1.513       .  S
C1835      H1839   1.109       .  S
C1835      H1840   1.109       .  S
C1835      H1841   1.110       .  S
H1836      C2465   1.085       .  S
C1838      H1842   1.108       .  S
C1838      H1843   1.110       .  S
C1838      H1844   1.111       .  S
C1845      C1846   1.401       .  A
C1845      C1850   1.381       .  A
C1845      H1852   1.080       .  S
C1846      C1847   1.414       .  A
C1847      C1848   1.403       .  A
C1847      C1854   1.505       .  S
C1848      C1849   1.404       .  A
C1848      H1853   1.084       .  S
C1849      C1850   1.421       .  A
C1851      H1855   1.110       .  S
C1851      H1856   1.103   1_455  S
C1851      H1857   1.098   1_455  S
C1854      H1858   1.110       .  S
C1854      H1859   1.110       .  S
C1854      H1860   1.108       .  S
C1861      H1868   1.083       .  S
C1862      C1863   1.438       .  A
C1863      C1864   1.386   1_554  A
C1863      C1870   1.509       .  S
C1864      C1865   1.383       .  A
C1864      H1869   1.086       .  S
C1865      C1866   1.403   1_556  A
C1867      H1871   1.110       .  S
C1867      H1873   1.108       .  S
C1870      H1874   1.094       .  S
C1870      H1876   1.111   1_554  S
C1877      C1882   1.401       .  A
C1877      H1884   1.084       .  S
C1878      C1879   1.426       .  A
C1879      C1880   1.382       .  A
C1879      C1886   1.510       .  S
C1880      C1881   1.393       .  A
C1880      H1885   1.088   1_554  S
C1882      C1883   1.494       .  S
C1883      H1887   1.108       .  S
C1883      H1889   1.108       .  S
C1886      H1890   1.091       .  S
C1886      H1891   1.111       .  S
C1886      H1892   1.106       .  S
C1893      C2530   1.388       .  A
C1893      C1898   1.382       .  A
C1893      H1900   1.086   1_554  S
C1894      C2529   1.388       .  A
C1895      C1896   1.397       .  A
C1895      C1902   1.503       .  S
C1896      H1901   1.082       .  S
C1897      C2534   1.425       .  A
C1898      C2533   1.425       .  A
C1898      C1899   1.511       .  S
C1899      H1903   1.111   1_554  S
C1899      H2540   1.099       .  S
C1899      H1905   1.108       .  S
C1902      H1906   1.110       .  S
C1902      H2543   1.110       .  S
C1902      H1908   1.103       .  S
H1904      C2535   1.099       .  S
H1907      C2538   1.110       .  S
C1909      C2228   1.390       .  A
C1909      C2533   1.463       .  S
C1910      C2227   1.390       .  A
C1910      C1911   1.390       .  A
C1910      H1915   1.079       .  S
C1911      C2196   1.474       .  S
C1912      C2231   1.389       .  A
C1912      H1916   1.078       .  S
C1913      C2230   1.389       .  A
C1913      C1914   1.404   1_655  A
C1913      C2498   1.483       .  S
C1914      H1917   1.082       .  S
C1918      C1919   1.389       .  A
C1918      C1923   1.378       .  A
C1918      C2132   1.462       .  S
C1919      C1920   1.408       .  A
C1919      H1924   1.081       .  S
C1920      C1921   1.415       .  A
C1920      C2164   1.480       .  S
C1921      C1922   1.398       .  A
C1921      H1925   1.078       .  S
C1922      C1923   1.393       .  A
C1922      C2151   1.481       .  S
C1923      H1926   1.081       .  S
C1927      C1928   1.386       .  A
C1927      C1932   1.395       .  A
C1927      C2084   1.459       .  S
C1928      C1929   1.403       .  A
C1928      H1933   1.084       .  S
C1929      C1930   1.399       .  A
C1929      C2119   1.464       .  S
C1930      C1931   1.413       .  A
C1930      H1934   1.081       .  S
C1931      C1932   1.392       .  A
C1931      C2100   1.492       .  S
C1932      H1935   1.075       .  S
C1936      C1937   1.391       .  A
C1936      C1941   1.449       .  A
C1936      C2041   1.496       .  S
C1937      C1938   1.369       .  A
C1937      H1942   1.083       .  S
C1938      C2257   1.389       .  A
C1938      C2183   1.449       .  S
C1939      C2256   1.389       .  A
C1939      C1940   1.395       .  A
C1939      H1943   1.085       .  S
C1940      C2259   1.439       .  A
C1940      C2004   1.522       .  S
C1941      C2258   1.439       .  A
C1941      H1944   1.080       .  S
C1945      C1946   1.400       .  A
C1945      C1950   1.423       .  A
C1945      C2050   1.497       .  S
C1946      C1947   1.394       .  A
C1946      H1951   1.083       .  S
C1947      C1948   1.400       .  A
C1947      C2135   1.471       .  S
C1948      C1949   1.404       .  A
C1948      H1952   1.084       .  S
C1949      C1950   1.426       .  A
C1949      C2069   1.487       .  S
C1950      H1953   1.083       .  S
C1954      C1955   1.382       .  A
C1954      C1959   1.437       .  A
C1954      C1995   1.494       .  S
C1955      C1956   1.376       .  A
C1955      H1960   1.085       .  S
C1956      C1957   1.405       .  A
C1956      C2087   1.462       .  S
C1957      C1958   1.413       .  A
C1957      H1961   1.083       .  S
C1958      C1959   1.437       .  A
C1958      C2078   1.525       .  S
C1959      H1962   1.081       .  S
C1963      C1964   1.393       .  A
C1963      C1968   1.419       .  A
C1963      C2047   1.465       .  S
C1964      C1965   1.382       .  A
C1964      H1969   1.085       .  S
C1965      C2212   1.440       .  S
C1966      C1967   1.385   1_544  A
C1966      H1970   1.087   1_545  S
C1967      C2001   1.470       .  S
C1968      H1971   1.075       .  S
C1972      C1973   1.401       .  A
C1972      C1977   1.444       .  A
C1972      C2072   1.528       .  S
C1973      C1974   1.419       .  A
C1974      C1975   1.395       .  A
C1975      C1976   1.386       .  A
C1975      H1979   1.083       .  S
C1976      C1977   1.440       .  A
C1976      C1998   1.516       .  S
C1977      H1980   1.075       .  S
C1981      C1982   1.398       .  A
C1981      C1986   1.424       .  A
C1981      C2075   1.501       .  S
C1982      C1983   1.402       .  A
C1982      H1987   1.074   1_565  S
C1983      C1984   1.410       .  A
C1984      C1985   1.397       .  A
C1984      H1988   1.082       .  S
C1985      C1986   1.430       .  A
C1985      C1992   1.507       .  S
C1986      H1989   1.083       .  S
O1990     Cr2008   2.211       .  S
O1990      C1998   1.338       .  A
O1991     Cr2008   1.871       .  S
O1991      C1992   1.274       .  A
C1992      O1993   1.331       .  A
O1993     Cr2009   2.206       .  S
O1994     Cr2009   1.859       .  S
O1994      C1995   1.277       .  A
C1995      O1996   1.339       .  A
O1996     Cr2010   2.207       .  S
O1997     Cr2010   1.889       .  S
O1997      C1998   1.281       .  A
O1999     Cr2008   1.959       .  S
O1999      C2007   1.262   1_554  A
O2000     Cr2008   2.054       .  S
O2000      C2001   1.290   1_554  A
C2001      O2002   1.263   1_556  A
O2002     Cr2009   1.954       .  S
O2003     Cr2009   2.050   1_556  S
O2003      C2004   1.292       .  A
C2004      O2005   1.280       .  A
O2005     Cr2010   2.028   1_556  S
O2006     Cr2010   2.084       .  S
O2006      C2007   1.301   1_554  A
C2007      C2016   1.488       .  S
Cr2008     O2011   1.609       .  S
Cr2009     O2011   1.616       .  S
Cr2010     O2011   1.617       .  S
C2012      C2013   1.411       .  A
C2012      C2044   1.506       .  S
C2013      H2018   1.084       .  S
C2014      C2333   1.388       .  A
C2014      C2199   1.458       .  S
C2015      C2332   1.388       .  A
C2015      C2016   1.382   1_554  A
C2015      H2019   1.089       .  S
C2016      C2335   1.424       .  A
C2017      C2334   1.424       .  A
C2017      H2020   1.079       .  S
C2021      C2022   1.416       .  A
C2021      C2026   1.426       .  A
C2021      C2066   1.487       .  S
C2022      C2023   1.408       .  A
C2023      C2024   1.385       .  A
C2024      C2025   1.375       .  A
C2024      H2028   1.081       .  S
C2025      C2026   1.403       .  A
C2025      C2056   1.471       .  S
C2026      H2029   1.083       .  S
C2030      C2031   1.441       .  A
C2030      C2035   1.413       .  A
C2031      C2032   1.431       .  A
C2031      H2036   1.082       .  S
C2032      C2033   1.382       .  A
C2032      C2053   1.491       .  S
C2033      C2034   1.375       .  A
C2033      H2037   1.081       .  S
C2034      C2035   1.399       .  A
C2035      H2038   1.083   1_655  S
O2039     Cr2057   2.034       .  S
O2039      C2047   1.286       .  A
O2040     Cr2057   1.967       .  S
O2040      C2041   1.260       .  A
C2041      O2042   1.297       .  A
O2042     Cr2058   2.059       .  S
O2043     Cr2058   1.996       .  S
O2043      C2044   1.276       .  A
C2044      O2045   1.294       .  A
O2045     Cr2059   2.066       .  S
O2046     Cr2059   1.963       .  S
O2046      C2047   1.267       .  A
O2048     Cr2057   1.858       .  S
O2048      C2056   1.277       .  A
O2049     Cr2057   2.162       .  S
O2049      C2050   1.326       .  A
C2050      O2051   1.286       .  A
O2051     Cr2058   1.879       .  S
O2052     Cr2058   2.203       .  S
O2052      C2053   1.333       .  A
C2053      O2054   1.277       .  A
O2054     Cr2059   1.873       .  S
O2055     Cr2059   2.168       .  S
O2055      C2056   1.328       .  A
Cr2057     O2060   1.610       .  S
Cr2058     O2060   1.610       .  S
Cr2059     O2060   1.604       .  S
O2061     Cr2079   2.095       .  S
O2061      C2069   1.297       .  A
C2063      O2064   1.296       .  A
O2064     Cr2080   2.083       .  S
O2065     Cr2080   1.955       .  S
O2065      C2066   1.268       .  A
O2068     Cr2081   1.951       .  S
O2068      C2069   1.265       .  A
O2070     Cr2079   1.895       .  S
O2070      C2078   1.290       .  A
C2072      O2073   1.276       .  A
O2073     Cr2080   1.868       .  S
O2074     Cr2080   2.212       .  S
C2075      O2076   1.278       .  A
O2077     Cr2081   2.197       .  S
O2077      C2078   1.332       .  A
Cr2079     O2082   1.619       .  S
Cr2081     O2082   1.615       .  S
C2083      C2084   1.399       .  A
C2083      C2088   1.394       .  A
C2083      H2090   1.085       .  S
C2084      C2085   1.407       .  A
C2085      C2086   1.395       .  A
C2085      C2092   1.503       .  S
C2086      C2087   1.396       .  A
C2086      H2091   1.076       .  S
C2087      C2088   1.415       .  A
C2088      C2089   1.507       .  S
C2089      H2093   1.111       .  S
C2089      H2094   1.109       .  S
C2089      H2095   1.106       .  S
C2092      H2096   1.108       .  S
C2092      H2097   1.106       .  S
C2092      H2098   1.110       .  S
C2099      C2100   1.417       .  A
C2099      C2104   1.405   1_655  A
C2099      H2106   1.082       .  S
C2100      C2101   1.438       .  A
C2101      C2102   1.397   1_655  A
C2101      C2108   1.515       .  S
C2102      C2103   1.397       .  A
C2102      H2107   1.083       .  S
C2103      C2104   1.394       .  A
C2104      C2105   1.495       .  S
C2105      H2109   1.098       .  S
C2108      H2112   1.110       .  S
C2108      H2113   1.111   1_655  S
C2108      H2114   1.108       .  S
C2115      C2116   1.416       .  A
C2115      C2120   1.399       .  A
C2116      C2117   1.428       .  A
C2117      C2118   1.398       .  A
C2117      C2124   1.510       .  S
C2118      C2119   1.398       .  A
C2118      H2123   1.086       .  S
C2119      C2120   1.399       .  A
C2120      C2121   1.503       .  S
C2121      H2125   1.110       .  S
C2121      H2126   1.110       .  S
C2121      H2127   1.110       .  S
C2124      H2128   1.097       .  S
C2124      H2129   1.105       .  S
C2124      H2130   1.111       .  S
C2131      C2132   1.406       .  A
C2131      C2136   1.403       .  A
C2131      H2138   1.084       .  S
C2132      C2133   1.411       .  A
C2133      C2134   1.379       .  A
C2133      C2140   1.510       .  S
C2134      C2135   1.405       .  A
C2134      H2139   1.084       .  S
C2135      C2136   1.411       .  A
C2136      C2137   1.507       .  S
C2137      H2141   1.111       .  S
C2137      H2142   1.108       .  S
C2137      H2143   1.110       .  S
C2140      H2144   1.106       .  S
C2140      H2145   1.109       .  S
C2140      H2146   1.109       .  S
C2147      C2148   1.410       .  A
C2147      C2152   1.381       .  A
C2148      C2149   1.412       .  A
C2149      C2150   1.407       .  A
C2149      C2156   1.505       .  S
C2150      C2151   1.411       .  A
C2150      H2155   1.080       .  S
C2151      C2152   1.409       .  A
C2152      C2153   1.513       .  S
C2153      H2157   1.109       .  S
C2153      H2158   1.109       .  S
C2153      H2159   1.110       .  S
C2156      H2160   1.108       .  S
C2156      H2161   1.110       .  S
C2156      H2162   1.111       .  S
C2163      C2164   1.401       .  A
C2163      C2168   1.381       .  A
C2163      H2170   1.080       .  S
C2164      C2165   1.414       .  A
C2165      C2166   1.403       .  A
C2165      C2172   1.505       .  S
C2166      C2167   1.404       .  A
C2166      H2171   1.084       .  S
C2167      C2168   1.421       .  A
C2169      H2173   1.110       .  S
C2169      H2174   1.103   1_455  S
C2169      H2175   1.098   1_455  S
C2172      H2176   1.110       .  S
C2172      H2177   1.110       .  S
C2172      H2178   1.108       .  S
C2179      C2498   1.406       .  A
C2179      C2502   1.391       .  A
C2179      H2186   1.083       .  S
C2180      C2497   1.406       .  A
C2180      C2181   1.438       .  A
C2180      C2231   1.483       .  S
C2181      C2182   1.386       .  A
C2181      C2188   1.509   1_565  S
C2182      C2183   1.383       .  A
C2182      H2187   1.086       .  S
C2183      C2184   1.403       .  A
C2184      C2497   1.391       .  A
C2184      C2503   1.505       .  S
C2185      C2502   1.505   1_556  S
C2185      H2189   1.110   1_556  S
C2185      H2508   1.110       .  S
C2185      H2191   1.108       .  S
C2188      H2192   1.094       .  S
C2188      H2511   1.107       .  S
C2188      H2194   1.111       .  S
H2190      C2503   1.110       .  S
H2193      C2506   1.107       .  S
C2195      C2200   1.401       .  A
C2195      H2202   1.084       .  S
C2196      C2197   1.426       .  A
C2197      C2198   1.382       .  A
C2197      C2204   1.510       .  S
C2198      C2199   1.393       .  A
C2198      H2203   1.088       .  S
C2200      C2201   1.494       .  S
C2201      H2205   1.108       .  S
C2201      H2524   1.110       .  S
C2201      H2207   1.108       .  S
C2204      H2208   1.091       .  S
C2204      H2209   1.111       .  S
C2204      H2210   1.106       .  S
H2206      C2519   1.110       .  S
C2211      C2216   1.382       .  A
C2211      H2218   1.086       .  S
C2212      C2531   1.403       .  A
C2213      C2530   1.403       .  A
C2213      C2214   1.397       .  A
C2213      C2220   1.503       .  S
C2214      C2533   1.404       .  A
C2214      H2219   1.082       .  S
C2215      C2532   1.404       .  A
C2215      C2227   1.463       .  S
C2216      C2217   1.511       .  S
C2217      H2221   1.111       .  S
C2217      H2223   1.108   1_545  S
C2220      H2224   1.110       .  S
C2220      H2226   1.103       .  S
C2228      C2229   1.390       .  A
C2228      H2233   1.079       .  S
C2229      C2514   1.474       .  S
C2230      H2234   1.078       .  S
C2231      C2232   1.404   1_655  A
C2232      H2235   1.082       .  S
C2236      C2237   1.389       .  A
C2236      C2241   1.378       .  A
C2236      C2450   1.462       .  S
C2237      C2238   1.408       .  A
C2237      H2242   1.081       .  S
C2238      C2239   1.415       .  A
C2238      C2482   1.480       .  S
C2239      C2240   1.398       .  A
C2239      H2243   1.078       .  S
C2240      C2241   1.393       .  A
C2240      C2469   1.481       .  S
C2241      H2244   1.081       .  S
C2245      C2246   1.386       .  A
C2245      C2250   1.395       .  A
C2245      C2402   1.459       .  S
C2246      C2247   1.403       .  A
C2246      H2251   1.084       .  S
C2247      C2248   1.399       .  A
C2247      C2437   1.464       .  S
C2248      C2249   1.413       .  A
C2248      H2252   1.081       .  S
C2249      C2250   1.392       .  A
C2249      C2418   1.492       .  S
C2250      H2253   1.075       .  S
C2254      C2255   1.391       .  A
C2254      C2259   1.449       .  A
C2254      C2359   1.496       .  S
C2255      C2256   1.369       .  A
C2255      H2260   1.083       .  S
C2256      C2501   1.449       .  S
C2257      C2258   1.395       .  A
C2257      H2261   1.085       .  S
C2258      C2322   1.522       .  S
C2259      H2262   1.080       .  S
C2263      C2264   1.400       .  A
C2263      C2268   1.423       .  A
C2263      C2368   1.497       .  S
C2264      C2265   1.394       .  A
C2264      H2269   1.083       .  S
C2265      C2266   1.400       .  A
C2265      C2453   1.471       .  S
C2266      C2267   1.404       .  A
C2266      H2270   1.084       .  S
C2267      C2268   1.426       .  A
C2267      C2387   1.487       .  S
C2268      H2271   1.083       .  S
C2272      C2273   1.382       .  A
C2272      C2277   1.437       .  A
C2272      C2313   1.494       .  S
C2273      C2274   1.376       .  A
C2273      H2278   1.085       .  S
C2274      C2275   1.405       .  A
C2274      C2405   1.462       .  S
C2275      C2276   1.413       .  A
C2275      H2279   1.083       .  S
C2276      C2277   1.437       .  A
C2276      C2396   1.525       .  S
C2277      H2280   1.081       .  S
C2281      C2282   1.393       .  A
C2281      C2286   1.419       .  A
C2281      C2365   1.465       .  S
C2282      C2283   1.382   1_556  A
C2282      H2287   1.085       .  S
C2283      C2530   1.440       .  S
C2284      C2285   1.385   1_545  A
C2284      H2288   1.087   1_545  S
C2285      C2319   1.470       .  S
C2286      H2289   1.075       .  S
C2290      C2291   1.401       .  A
C2290      C2295   1.444       .  A
C2290      C2390   1.528       .  S
C2291      C2292   1.419       .  A
C2292      C2293   1.395       .  A
C2293      C2294   1.386       .  A
C2293      H2297   1.083       .  S
C2294      C2295   1.440       .  A
C2294      C2316   1.516       .  S
C2295      H2298   1.075       .  S
C2299      C2300   1.398       .  A
C2299      C2304   1.424       .  A
C2299      C2393   1.501       .  S
C2300      C2301   1.402       .  A
C2300      H2305   1.074   1_565  S
C2301      C2302   1.410       .  A
C2302      C2303   1.397       .  A
C2302      H2306   1.082       .  S
C2303      C2304   1.430       .  A
C2303      C2310   1.507       .  S
C2304      H2307   1.083       .  S
O2308     Cr2326   2.211       .  S
O2308      C2316   1.338       .  A
O2309     Cr2326   1.871       .  S
O2309      C2310   1.274       .  A
C2310      O2311   1.331       .  A
O2311     Cr2327   2.206       .  S
O2312     Cr2327   1.859       .  S
O2312      C2313   1.277       .  A
C2313      O2314   1.339       .  A
O2314     Cr2328   2.207       .  S
O2315     Cr2328   1.889       .  S
O2315      C2316   1.281       .  A
O2317     Cr2326   1.959       .  S
O2317      C2325   1.262       .  A
O2318     Cr2326   2.054       .  S
O2318      C2319   1.290       .  A
C2319      O2320   1.263       .  A
O2320     Cr2327   1.954       .  S
O2321     Cr2327   2.050       .  S
O2321      C2322   1.292       .  A
C2322      O2323   1.280       .  A
O2323     Cr2328   2.028       .  S
O2324     Cr2328   2.084       .  S
O2324      C2325   1.301       .  A
C2325      C2334   1.488       .  S
Cr2326     O2329   1.609       .  S
Cr2327     O2329   1.616       .  S
Cr2328     O2329   1.617       .  S
C2330      C2331   1.411       .  A
C2330      C2362   1.506       .  S
C2331      H2336   1.084       .  S
C2332      C2517   1.458       .  S
C2333      C2334   1.382       .  A
C2333      H2337   1.089       .  S
C2335      H2338   1.079       .  S
C2339      C2340   1.416       .  A
C2339      C2344   1.426       .  A
C2339      C2384   1.487       .  S
C2340      C2341   1.408       .  A
C2341      C2342   1.385       .  A
C2342      C2343   1.375       .  A
C2342      H2346   1.081       .  S
C2343      C2344   1.403       .  A
C2343      C2374   1.471       .  S
C2344      H2347   1.083       .  S
C2348      C2349   1.441       .  A
C2348      C2353   1.413       .  A
C2349      C2350   1.431       .  A
C2349      H2354   1.082       .  S
C2350      C2351   1.382       .  A
C2350      C2371   1.491       .  S
C2351      C2352   1.375       .  A
C2351      H2355   1.081       .  S
C2352      C2353   1.399       .  A
C2353      H2356   1.083   1_655  S
O2357     Cr2375   2.034       .  S
O2357      C2365   1.286       .  A
O2358     Cr2375   1.967       .  S
O2358      C2359   1.260       .  A
C2359      O2360   1.297       .  A
O2360     Cr2376   2.059       .  S
O2361     Cr2376   1.996       .  S
O2361      C2362   1.276       .  A
C2362      O2363   1.294       .  A
O2363     Cr2377   2.066       .  S
O2364     Cr2377   1.963       .  S
O2364      C2365   1.267       .  A
O2366     Cr2375   1.858       .  S
O2366      C2374   1.277       .  A
O2367     Cr2375   2.162       .  S
O2367      C2368   1.326       .  A
C2368      O2369   1.286       .  A
O2369     Cr2376   1.879       .  S
O2370     Cr2376   2.203       .  S
O2370      C2371   1.333       .  A
C2371      O2372   1.277       .  A
O2372     Cr2377   1.873       .  S
O2373     Cr2377   2.168       .  S
O2373      C2374   1.328       .  A
Cr2375     O2378   1.610       .  S
Cr2376     O2378   1.610       .  S
Cr2377     O2378   1.604       .  S
O2379     Cr2397   2.095       .  S
O2379      C2387   1.297       .  A
C2381      O2382   1.296       .  A
O2382     Cr2398   2.083       .  S
O2383     Cr2398   1.955       .  S
O2383      C2384   1.268       .  A
O2386     Cr2399   1.951       .  S
O2386      C2387   1.265       .  A
O2388     Cr2397   1.895       .  S
O2388      C2396   1.290       .  A
C2390      O2391   1.276       .  A
O2391     Cr2398   1.868       .  S
O2392     Cr2398   2.212       .  S
C2393      O2394   1.278       .  A
O2395     Cr2399   2.197       .  S
O2395      C2396   1.332       .  A
Cr2397     O2400   1.619       .  S
Cr2399     O2400   1.615       .  S
C2401      C2402   1.399       .  A
C2401      C2406   1.394       .  A
C2401      H2408   1.085       .  S
C2402      C2403   1.407       .  A
C2403      C2404   1.395       .  A
C2403      C2410   1.503       .  S
C2404      C2405   1.396       .  A
C2404      H2409   1.076       .  S
C2405      C2406   1.415       .  A
C2406      C2407   1.507       .  S
C2407      H2411   1.111       .  S
C2407      H2412   1.109       .  S
C2407      H2413   1.106       .  S
C2410      H2414   1.108       .  S
C2410      H2415   1.106       .  S
C2410      H2416   1.110       .  S
C2417      C2418   1.417       .  A
C2417      C2422   1.405   1_655  A
C2417      H2424   1.082       .  S
C2418      C2419   1.438       .  A
C2419      C2420   1.397   1_655  A
C2419      C2426   1.515       .  S
C2420      C2421   1.397       .  A
C2420      H2425   1.083       .  S
C2421      C2422   1.394       .  A
C2422      C2423   1.495       .  S
C2423      H2427   1.098       .  S
C2426      H2430   1.110       .  S
C2426      H2431   1.111   1_655  S
C2426      H2432   1.108       .  S
C2433      C2434   1.416       .  A
C2433      C2438   1.399       .  A
C2434      C2435   1.428       .  A
C2435      C2436   1.398       .  A
C2435      C2442   1.510       .  S
C2436      C2437   1.398       .  A
C2436      H2441   1.086       .  S
C2437      C2438   1.399       .  A
C2438      C2439   1.503       .  S
C2439      H2443   1.110       .  S
C2439      H2444   1.110       .  S
C2439      H2445   1.110       .  S
C2442      H2446   1.097       .  S
C2442      H2447   1.105       .  S
C2442      H2448   1.111       .  S
C2449      C2450   1.406       .  A
C2449      C2454   1.403       .  A
C2449      H2456   1.084       .  S
C2450      C2451   1.411       .  A
C2451      C2452   1.379       .  A
C2451      C2458   1.510       .  S
C2452      C2453   1.405       .  A
C2452      H2457   1.084       .  S
C2453      C2454   1.411       .  A
C2454      C2455   1.507       .  S
C2455      H2459   1.111       .  S
C2455      H2460   1.108       .  S
C2455      H2461   1.110       .  S
C2458      H2462   1.106       .  S
C2458      H2463   1.109       .  S
C2458      H2464   1.109       .  S
C2465      C2466   1.410       .  A
C2465      C2470   1.381       .  A
C2466      C2467   1.412       .  A
C2467      C2468   1.407       .  A
C2467      C2474   1.505       .  S
C2468      C2469   1.411       .  A
C2468      H2473   1.080       .  S
C2469      C2470   1.409       .  A
C2470      C2471   1.513       .  S
C2471      H2475   1.109       .  S
C2471      H2476   1.109       .  S
C2471      H2477   1.110       .  S
C2474      H2478   1.108       .  S
C2474      H2479   1.110       .  S
C2474      H2480   1.111       .  S
C2481      C2482   1.401       .  A
C2481      C2486   1.381       .  A
C2481      H2488   1.080       .  S
C2482      C2483   1.414       .  A
C2483      C2484   1.403       .  A
C2483      C2490   1.505       .  S
C2484      C2485   1.404       .  A
C2484      H2489   1.084       .  S
C2485      C2486   1.421       .  A
C2487      H2491   1.110       .  S
C2487      H2492   1.103   1_455  S
C2487      H2493   1.098   1_455  S
C2490      H2494   1.110       .  S
C2490      H2495   1.110       .  S
C2490      H2496   1.108       .  S
C2497      H2504   1.083       .  S
C2498      C2499   1.438       .  A
C2499      C2500   1.386   1_554  A
C2499      C2506   1.509   1_565  S
C2500      C2501   1.383       .  A
C2500      H2505   1.086       .  S
C2501      C2502   1.403   1_556  A
C2503      H2507   1.110       .  S
C2503      H2509   1.108       .  S
C2506      H2510   1.094       .  S
C2506      H2512   1.111   1_554  S
C2513      C2518   1.401       .  A
C2513      H2520   1.084       .  S
C2514      C2515   1.426       .  A
C2515      C2516   1.382       .  A
C2515      C2522   1.510       .  S
C2516      C2517   1.393       .  A
C2516      H2521   1.088   1_554  S
C2518      C2519   1.494       .  S
C2519      H2523   1.108       .  S
C2519      H2525   1.108       .  S
C2522      H2526   1.091       .  S
C2522      H2527   1.111       .  S
C2522      H2528   1.106       .  S
C2529      C2534   1.382       .  A
C2529      H2536   1.086   1_554  S
C2531      C2532   1.397       .  A
C2531      C2538   1.503       .  S
C2532      H2537   1.082       .  S
C2534      C2535   1.511       .  S
C2535      H2539   1.111   1_554  S
C2535      H2541   1.108   1_545  S
C2538      H2542   1.110       .  S
C2538      H2544   1.103       .  S
