geometry optimzed in LAMMPS
_audit_creation_date              2020-12-01 
_audit_creation_method            'lammps2cif' 
_symmetry_space_group_name_H-M    'P1' 
_symmetry_Int_Tables_number       1 
_symmetry_cell_setting            triclinic 
loop_ 
_symmetry_equiv_pos_as_xyz 
  x,y,z 
_cell_length_a                    41.34662051 
_cell_length_b                    41.34125918386847 
_cell_length_c                    44.10071586807781 
_cell_angle_alpha                 110.88006120874302 
_cell_angle_beta                  70.2877196996078 
_cell_angle_gamma                 128.85362883513378 
loop_ 
_atom_site_label 
_atom_site_type_symbol 
_atom_site_fract_x 
_atom_site_fract_y 
_atom_site_fract_z 
_atom_site_charge 
C1          C  0.34596645  0.14247690  0.99544308     0.03500
C2          C  0.30204024  0.11658772  0.99754037    -0.12700
C3          C  0.28111047  0.13291705  0.99685683     0.01000
C4          C  0.30462561  0.17539390  0.99418041    -0.11200
C5          C  0.34833181  0.20211960  0.99323093     0.03500
C6          C  0.36866298  0.18542552  0.99442117    -0.10600
H7          H  0.28456277  0.08324141  0.99760032     0.09100
H8          H  0.28905479  0.18680724  0.99044146     0.06600
H9          H  0.40254382  0.20521455  0.99286444     0.06400
C10         C  0.35309714  0.15071986  0.24782738     0.03500
C11         C  0.37671101  0.19494632  0.25155799    -0.12700
C12         C  0.35829882  0.21415474  0.25123423     0.01000
C13         C  0.31547824  0.18838721  0.24842620    -0.11200
C14         C  0.29149804  0.14427132  0.24494887     0.03500
C15         C  0.31016616  0.12570351  0.24546885    -0.10600
H16         H  0.41008913  0.21390734  0.25219496     0.09100
H17         H  0.30140578  0.20203462  0.24582043     0.06600
H18         H  0.29234799  0.09146972  0.24099971     0.06400
C19         C  0.15278594  0.33731887  0.34648524     0.03500
C20         C  0.19698696  0.36191247  0.34094430    -0.12700
C21         C  0.21837495  0.34543502  0.34050403     0.01000
C22         C  0.19463107  0.30343386  0.34469298    -0.11200
C23         C  0.15052387  0.27816720  0.34938072     0.03500
C24         C  0.12987439  0.29506284  0.34956060    -0.10600
H25         H  0.21455512  0.39466205  0.33907343     0.09100
H26         H  0.21027525  0.29099555  0.34654538     0.06600
H27         H  0.09583490  0.27636688  0.35460976     0.06400
C28         C  0.15108353  0.33846346  0.09654054     0.03500
C29         C  0.19437999  0.36208385  0.09686619    -0.12700
C30         C  0.21198262  0.34290051  0.09862510     0.01000
C31         C  0.18592720  0.29949424  0.09884595    -0.11200
C32         C  0.14277755  0.27524918  0.09779913     0.03500
C33         C  0.12554189  0.29489697  0.09625578    -0.10600
H34         H  0.21380580  0.39580731  0.09740394     0.09100
H35         H  0.19880800  0.28501797  0.10208512     0.06600
H36         H  0.09204167  0.27695874  0.09659789     0.06400
O37         O  0.06567035  0.43097413  0.35851696    -0.74900
O38         O  0.05476071  0.42623924  0.41147711    -0.53800
C39         C  0.06915054  0.42018467  0.38072386     0.78800
O40         O  0.08151674  0.11843721  0.40618505    -0.59500
O41         O  0.02326574  0.08956050  0.38526680    -0.52600
C42         C  0.06039492  0.12048376  0.39210085     0.70800
O43         O  0.11763387  0.06960877  0.45522098    -0.74100
O44         O  0.08838104  0.50312160  0.46153181    -0.54700
C45         C  0.11692643  0.04326454  0.46493571     0.76800
O46         O  0.02023602  0.47689829  0.31341875    -0.59200
O47         O  0.48875034  0.01167277  0.33605112    -0.52400
C48         C  0.50535582  0.49658165  0.31204668     0.73400
Zr49       Zr  0.03152060  0.46180822  0.35654588     2.54700
O50         O  0.09906353  0.49657751  0.32106643    -0.79800
O51         O  0.50073906  0.39728635  0.31645365    -0.93200
Zr52       Zr  0.07471092  0.06685934  0.42654511     2.64700
O53         O  0.14202234  0.09384500  0.39000766    -0.98200
O54         O  0.10182527  0.13264944  0.46719963    -0.80200
O55         O  0.06558005  0.50040145  0.40371761    -0.83600
O56         O  0.04308356  0.02943578  0.37836091    -2.18300
O57         O  0.38082257  0.40868446  0.38172952    -0.67000
O58         O  0.40928964  0.47530648  0.37677735    -0.51600
C59         C  0.38087852  0.43520908  0.37281854     0.71800
O60         O  0.47233205  0.99869326  0.02692514    -0.59900
O61         O  0.00709449  0.46647006  0.50437252    -0.51900
C62         C  0.49293882  0.48315756  0.02812761     0.73600
O63         O  0.43364652  0.04935671  0.48190402    -0.71300
O64         O  0.44036428  0.04990792  0.42859242    -0.50000
C65         C  0.42914496  0.05903607  0.45959633     0.75000
O66         O  0.40944693  0.36169147  0.44164189    -0.66600
O67         O  0.47167794  0.38787176  0.45503749    -0.53800
C68         C  0.43242549  0.35929634  0.45328520     0.73300
Zr69       Zr  0.42002373  0.40942370  0.41313854     2.77500
O70         O  0.34915359  0.37886905  0.44400358    -0.97400
O71         O  0.39529519  0.34301305  0.37313103    -0.78200
Zr72       Zr  0.46323206  0.01391629  0.48299774     2.70100
O73         O  0.39594405  0.47914681  0.01530382    -0.79400
O74         O  0.99724702  0.08185386  0.02246084    -0.98500
Zr75       Zr  0.01963093  0.45979512  0.44540462     2.21500
Zr76       Zr  0.47516951  0.01632076  0.39452191     2.11100
O77         O  0.42953888  0.47574720  0.43566475    -2.47200
O78         O  0.45176086  0.44645301  0.46127219    -0.79200
O79         O  0.46499603  0.45075730  0.37207250    -0.71400
O80         O  0.02954149  0.02687350  0.46831502    -2.32400
O81         O  0.48649745  0.42010932  0.39746454    -2.28600
O82         O  0.00816338  0.05576797  0.44187961    -0.73200
H83         H  0.06001544  0.04620441  0.36145715     0.78800
H84         H  0.04278540  0.04090241  0.48777131     0.79900
H85         H  0.40284559  0.47186188  0.44038527     0.82100
H86         H  0.48281500  0.39316641  0.39011591     0.79700
H87         H  0.08544177  0.12372174  0.48848445     0.42800
H88         H  0.00641462  0.10373057  0.01106084     0.41700
H89         H  0.38758174  0.44999883  0.01210478     0.41400
H90         H  0.34185535  0.39810896  0.44543860     0.39300
H91         H  0.41547578  0.35112518  0.35266877     0.42500
H92         H  0.49301536  0.37533795  0.32701443     0.37300
H93         H  0.10032270  0.97686852  0.30600605     0.43400
H94         H  0.13650763  0.09270598  0.36934008     0.39800
H95         H  0.33115134  0.35270774  0.42885874     0.44700
H96         H  0.02340394  0.40298448  0.29572988     0.43400
H97         H  0.15976990  0.12445610  0.39950070     0.43600
H98         H  0.46832404  0.07761064  0.03970051     0.43900
O99         O  0.05703871  0.42423452  0.10758855    -0.74900
O100        O  0.06033226  0.43319241  0.16075956    -0.53800
C101        C  0.06790865  0.42066421  0.12973103     0.78800
O102        O  0.08331421  0.11521403  0.14112632    -0.59500
O103        O  0.01872287  0.08461817  0.12950186    -0.52600
C104        C  0.05785286  0.11467315  0.13005681     0.70800
O105        O  0.13076597  0.07549163  0.18921728    -0.74100
O106        O  0.09856391  0.51364264  0.20624250    -0.54700
C107        C  0.13241559  0.05333672  0.20224800     0.76800
O108        O  0.00621763  0.46415115  0.06348360    -0.59200
O109        O  0.47434570  0.99915834  0.08696581    -0.52400
C110        C  0.49425214  0.48391147  0.06114890     0.73400
Zr111      Zr  0.02014893  0.45238747  0.10676092     2.54700
O112        O  0.07871521  0.46904442  0.06167307    -0.79800
O113        O  0.49604031  0.39136043  0.06838543    -0.93200
Zr114      Zr  0.08113023  0.07084437  0.16736325     2.64700
O115        O  0.14557230  0.09588139  0.12761968    -0.98200
O116        O  0.11299674  0.13969731  0.20441236    -0.80200
O117        O  0.06430039  0.49885934  0.14775297    -0.83600
O118        O  0.04218073  0.02726493  0.12330392    -2.18300
O119        O  0.37608248  0.40560045  0.14401858    -0.67000
O120        O  0.40358150  0.46842586  0.13173518    -0.51600
C121        C  0.37441585  0.42917127  0.13272605     0.71800
O122        O  0.49137795  0.01544342  0.27636510    -0.59900
O123        O  0.02125216  0.47918957  0.25352407    -0.51900
C124        C  0.50569609  0.49766093  0.27898072     0.73600
O125        O  0.44757341  0.06398256  0.23318628    -0.71300
O126        O  0.44291646  0.05337472  0.18006200    -0.50000
C127        C  0.43712786  0.06793479  0.21095735     0.75000
O128        O  0.41954549  0.37270052  0.20273788    -0.66600
O129        O  0.48471030  0.40194782  0.21224159    -0.53800
C130        C  0.44499732  0.37293780  0.21354550     0.73300
Zr131      Zr  0.42343134  0.41424304  0.17217871     2.77500
O132        O  0.35653347  0.38780328  0.20909193    -0.97400
O133        O  0.39655633  0.34429386  0.13696808    -0.78200
Zr134      Zr  0.47860704  0.02943841  0.23362876     2.70100
O135        O  0.41233737  0.49937697  0.27273662    -0.79400
O136        O  0.01351449  0.09385865  0.27012786    -0.98500
Zr137      Zr  0.02679144  0.46765708  0.19509129     2.21500
Zr138      Zr  0.47151014  0.01373467  0.14558279     2.11100
O139        O  0.43470290  0.48152201  0.19015472    -2.47200
O140        O  0.46323338  0.45908013  0.21579160    -0.79200
O141        O  0.46134749  0.44718357  0.12596281    -0.71400
O142        O  0.04324277  0.03756716  0.21348924    -2.32400
O143        O  0.48926200  0.42397533  0.15218986    -2.28600
O144        O  0.01547903  0.06170284  0.18778811    -0.73200
H145        H  0.05632314  0.04117114  0.10477207     0.78800
H146        H  0.05961704  0.05391614  0.23118064     0.79900
H147        H  0.40792012  0.47780759  0.19678744     0.82100
H148        H  0.48501226  0.39688094  0.14656384     0.79700
H149        H  0.09616324  0.13370607  0.22632294     0.42800
H150        H  0.02017135  0.11489054  0.25909241     0.41700
H151        H  0.39983458  0.46876330  0.26861735     0.41400
H152        H  0.34178593  0.35665625  0.20396137     0.39300
H153        H  0.39339008  0.34657369  0.11668889     0.42500
H154        H  0.48638328  0.37018994  0.08078237     0.37300
H155        H  0.11689522  0.00402014  0.08064740     0.43400
H156        H  0.13631882  0.08602741  0.10617367     0.39800
H157        H  0.36391398  0.39683218  0.23117829     0.45300
H158        H  0.98570388  0.38030023  0.05494028     0.43400
H159        H  0.16050999  0.12700890  0.13226265     0.43600
H160        H  0.54083020  0.10212536  0.27235752     0.43900
C161        C  0.13070668  0.20505417  0.08527240    -0.21000
C162        C  0.11606264  0.23069333  0.10184859    -0.09000
C163        C  0.07896263  0.21512813  0.12510417     0.29900
C164        C  0.05842989  0.17566518  0.13259350    -0.21000
C165        C  0.07508951  0.15187311  0.11770673    -0.09000
C166        C  0.11069616  0.16613716  0.09336746     0.29900
F167        F  0.12662341  0.14289436  0.07804803    -0.19500
H168        H  0.15880470  0.21604834  0.06697736     0.18200
H169        H  0.03105910  0.16490556  0.15158535     0.18200
F170        F  0.06437179  0.23920941  0.14255202    -0.19500
C171        C  0.31232246  0.42707494  0.13566793    -0.21000
C172        C  0.33549954  0.40978559  0.12098465    -0.09000
C173        C  0.31963871  0.37238601  0.09702775     0.29900
C174        C  0.28039981  0.35200137  0.08853137    -0.21000
C175        C  0.25610211  0.36822549  0.10419223    -0.09000
C176        C  0.27273664  0.40634051  0.12770021     0.29900
F177        F  0.24972399  0.42211828  0.14466737    -0.19500
H178        H  0.32400601  0.45557599  0.15457803     0.18200
H179        H  0.26848738  0.32288291  0.07025589     0.18200
F180        F  0.34195709  0.35548483  0.08209240    -0.19500
C181        C  0.10989509  0.35401219  0.08063966    -0.21000
C182        C  0.13147308  0.36071763  0.10334078    -0.09000
C183        C  0.13263328  0.38746413  0.13398815     0.29900
C184        C  0.11265821  0.40732925  0.14185688    -0.21000
C185        C  0.09078300  0.40082877  0.11943294    -0.09000
C186        C  0.08995211  0.37426426  0.08843509     0.29900
F187        F  0.06899383  0.36689680  0.06611541    -0.19500
H188        H  0.10838479  0.33300755  0.05703422     0.18200
H189        H  0.11398986  0.42754204  0.16586996     0.18200
F190        F  0.15175149  0.39302225  0.15689996    -0.19500
C191        C  0.06828559  0.16270297  0.35761438    -0.21000
C192        C  0.08138974  0.16112309  0.38234661    -0.09000
C193        C  0.11655174  0.19844364  0.39632255     0.29900
C194        C  0.13873959  0.23574517  0.38499937    -0.21000
C195        C  0.12641865  0.23723126  0.35982106    -0.09000
C196        C  0.09050071  0.20045260  0.34644948     0.29900
F197        F  0.07752043  0.20067302  0.32210653    -0.19500
H198        H  0.04143298  0.13449969  0.34636032     0.18200
H199        H  0.16539637  0.26395392  0.39647135     0.18200
F200        F  0.12943643  0.19932053  0.42131862    -0.19500
C201        C  0.32826530  0.37880220  0.33585190    -0.21000
C202        C  0.34468313  0.41779580  0.35795118    -0.09000
C203        C  0.32310524  0.43685233  0.36876185     0.29900
C204        C  0.28306163  0.41450482  0.36083630    -0.21000
C205        C  0.26449206  0.37331843  0.34137973    -0.09000
C206        C  0.28891170  0.35705066  0.32708638     0.29900
F207        F  0.27390073  0.31908037  0.30596986    -0.19500
H208        H  0.34520413  0.36431224  0.32645117     0.18200
H209        H  0.26545276  0.42821356  0.37213204     0.18200
F210        F  0.33875594  0.47508327  0.38961656    -0.19500
C211        C  0.13968547  0.38231082  0.33345726    -0.21000
C212        C  0.13062810  0.35746778  0.35405028    -0.09000
C213        C  0.10163112  0.35365763  0.38313871     0.29900
C214        C  0.08195601  0.37396843  0.39124502    -0.21000
C215        C  0.09053001  0.39864304  0.37068493    -0.09000
C216        C  0.11975253  0.40264357  0.34153993     0.29900
F217        F  0.13012139  0.42715993  0.32138550    -0.19500
H218        H  0.16230594  0.38603235  0.31114036     0.18200
H219        H  0.05985701  0.37032501  0.41388052     0.18200
F220        F  0.09330255  0.33143788  0.40443831    -0.19500
C221        C  0.42085492  0.11932677  0.25095250    -0.21000
C222        C  0.41597176  0.08970437  0.22116107    -0.09000
C223        C  0.39030820  0.08076682  0.20075112     0.29900
C224        C  0.36986963  0.10045734  0.21004168    -0.21000
C225        C  0.37467379  0.12991005  0.23962271    -0.09000
C226        C  0.40084676  0.13980606  0.25990286     0.29900
F227        F  0.40661740  0.16884184  0.28837770    -0.19500
H228        H  0.44059154  0.12705934  0.26703668     0.18200
H229        H  0.35048769  0.09300120  0.19374497     0.18200
F230        F  0.38418264  0.05232511  0.17189328    -0.19500
C231        C  0.42337850  0.27498738  0.22596356    -0.21000
C232        C  0.38461302  0.25901950  0.24723588    -0.09000
C233        C  0.36899205  0.28416038  0.26064077     0.29900
C234        C  0.38964542  0.32211379  0.25044780    -0.21000
C235        C  0.42694914  0.33649281  0.22774763    -0.09000
C236        C  0.44463165  0.31358625  0.21661029     0.29900
F237        F  0.48068292  0.32675660  0.19459991    -0.19500
H238        H  0.43612313  0.25643276  0.21481836     0.18200
H239        H  0.37603984  0.33991353  0.25976775     0.18200
F240        F  0.33309907  0.27149409  0.28280678    -0.19500
C241        C  0.24864400  0.12578366  0.20601396    -0.21000
C242        C  0.25045865  0.11783886  0.23352354    -0.09000
C243        C  0.21350315  0.08578671  0.24938551     0.29900
C244        C  0.17503831  0.06341275  0.23843241    -0.21000
C245        C  0.17310951  0.07320617  0.21187782    -0.09000
C246        C  0.21057327  0.10429036  0.19549968     0.29900
F247        F  0.21056841  0.11455289  0.16948205    -0.19500
H248        H  0.27695641  0.14953423  0.19290741     0.18200
H249        H  0.14661040  0.03973333  0.25150134     0.18200
F250        F  0.21427566  0.07751416  0.27618582    -0.19500
C251        C  0.39808602  0.12712858  0.45809330    -0.21000
C252        C  0.36845062  0.12213004  0.48676741    -0.09000
C253        C  0.35977876  0.09745546  0.00788855     0.29900
C254        C  0.38131051  0.07873929  0.49940839    -0.21000
C255        C  0.40970762  0.08232605  0.46991897    -0.09000
C256        C  0.41859160  0.10762039  0.44970852     0.29900
F257        F  0.44731746  0.11379096  0.42183922    -0.19500
H258        H  0.40474034  0.14555399  0.44169682     0.18200
H259        H  0.37260426  0.05745025  0.01406761     0.18200
F260        F  0.33117525  0.09142567  0.03579077    -0.19500
C261        C  0.40852108  0.25835908  0.46154723    -0.21000
C262        C  0.37129542  0.24351965  0.48459536    -0.09000
C263        C  0.35701931  0.27033643  0.99987832     0.29900
C264        C  0.37591312  0.30660217  0.48855621    -0.21000
C265        C  0.41239097  0.32054898  0.46501128    -0.09000
C266        C  0.42927826  0.29684884  0.45227200     0.29900
F267        F  0.46475858  0.30995551  0.42961985    -0.19500
H268        H  0.42091808  0.23952618  0.44973473     0.18200
H269        H  0.36351046  0.32573916  0.99888064     0.18200
F270        F  0.32274080  0.25897072  0.02367591    -0.19500
C271        C  0.16922840  0.09686270  0.50275243    -0.21000
C272        C  0.15410891  0.06020325  0.47811708    -0.09000
C273        C  0.17775412  0.04335061  0.46324821     0.29900
C274        C  0.21779501  0.06512248  0.47092442    -0.21000
C275        C  0.23433847  0.10351401  0.49399322    -0.09000
C276        C  0.20867763  0.11797330  0.51114835     0.29900
F277        F  0.22381555  0.15534036  0.03394767    -0.19500
H278        H  0.15104426  0.10992707  0.51465452     0.18200
H279        H  0.23692342  0.05345275  0.45718046     0.18200
F280        F  0.16376202  0.00801882  0.43918676    -0.19500
C281        C  0.34528454  0.14091765  0.49339255     0.03500
C282        C  0.30122930  0.11501274  0.49606999    -0.12700
C283        C  0.27990299  0.13136091  0.49616664     0.01000
C284        C  0.30322314  0.17379919  0.49347039    -0.11200
C285        C  0.34711295  0.20035643  0.49145733     0.03500
C286        C  0.36779605  0.18368193  0.49196390    -0.10600
H287        H  0.28388209  0.08172737  0.49626949     0.09100
H288        H  0.28727016  0.18524529  0.49045768     0.06600
H289        H  0.40174777  0.20344487  0.48985189     0.06400
C290        C  0.35058767  0.14695286  0.74494840     0.03500
C291        C  0.37509941  0.19118709  0.74870764    -0.12700
C292        C  0.35748145  0.21124164  0.74870376     0.01000
C293        C  0.31473157  0.18638833  0.74601240    -0.11200
C294        C  0.29004157  0.14219298  0.74204843     0.03500
C295        C  0.30789462  0.12267914  0.74226677    -0.10600
H296        H  0.40843432  0.20947260  0.74926812     0.09100
H297        H  0.30127082  0.20089993  0.74388377     0.06600
H298        H  0.28971053  0.08839379  0.73740314     0.06400
C299        C  0.15374630  0.33912077  0.84671006     0.03500
C300        C  0.19792159  0.36342177  0.84085960    -0.12700
C301        C  0.21897005  0.34709421  0.84146448     0.01000
C302        C  0.19496193  0.30581478  0.84726017    -0.11200
C303        C  0.15096415  0.28079526  0.85182688     0.03500
C304        C  0.13056158  0.29731255  0.85083761    -0.10600
H305        H  0.21568571  0.39585311  0.83807440     0.09100
H306        H  0.21036508  0.29363579  0.85002796     0.06600
H307        H  0.09652036  0.27883532  0.85590802     0.06400
C308        C  0.14935161  0.33560978  0.59520226     0.03500
C309        C  0.19223322  0.35857482  0.59638837    -0.12700
C310        C  0.20880859  0.33878281  0.59875224     0.01000
C311        C  0.18217730  0.29497100  0.59795909    -0.11200
C312        C  0.13930006  0.27128287  0.59583801     0.03500
C313        C  0.12315291  0.29184004  0.59407811    -0.10600
H314        H  0.21206401  0.39240346  0.59727967     0.09100
H315        H  0.19417155  0.27971136  0.60130631     0.06600
H316        H  0.08986131  0.27443877  0.59384656     0.06400
O317        O  0.06772468  0.43324673  0.85876191    -0.74900
O318        O  0.05514748  0.42676558  0.91142852    -0.53800
C319        C  0.07064411  0.42192222  0.88088431     0.78800
O320        O  0.08301223  0.11972679  0.90545826    -0.59500
O321        O  0.02492562  0.09067254  0.88426289    -0.52600
C322        C  0.06190782  0.12169484  0.89132827     0.70800
O323        O  0.12069591  0.07111674  0.95258804    -0.74100
O324        O  0.08847258  0.50246448  0.96160354    -0.54700
C325        C  0.11989810  0.04499626  0.96267848     0.76800
O326        O  0.02134815  0.47803673  0.81396643    -0.59200
O327        O  0.48962807  0.01348482  0.83603934    -0.52400
C328        C  0.50586211  0.49495679  0.81150939     0.73400
Zr329      Zr  0.03111221  0.46123945  0.85674628     2.54700
O330        O  0.09593457  0.49053605  0.81754022    -0.79800
O331        O  0.50159030  0.39444604  0.81774148    -0.93200
Zr332      Zr  0.07659550  0.06802672  0.92507751     2.64700
O333        O  0.14177011  0.09331320  0.88609071    -0.98200
O334        O  0.10606318  0.13410931  0.96531193    -0.80200
O335        O  0.06606769  0.50010907  0.90345428    -0.83600
O336        O  0.04410055  0.03045563  0.87745161    -2.18300
O337        O  0.38037647  0.40896576  0.88348396    -0.67000
O338        O  0.41051244  0.47501328  0.87604488    -0.51600
C339        C  0.38115824  0.43515747  0.87342267     0.71800
O340        O  0.47260089  0.99755779  0.52624472    -0.59900
O341        O  0.00684710  0.46565848  0.00386218    -0.51900
C342        C  0.48922232  0.48025145  0.52848858     0.73600
O343        O  0.43378024  0.04981864  0.98124307    -0.71300
O344        O  0.44141034  0.05180060  0.92810925    -0.50000
C345        C  0.42965890  0.06012342  0.95912007     0.75000
O346        O  0.41039799  0.36225540  0.94215308    -0.66600
O347        O  0.47272469  0.38894895  0.95573668    -0.53800
C348        C  0.43352435  0.36015572  0.95388058     0.73300
Zr349      Zr  0.42058190  0.41009123  0.91409441     2.77500
O350        O  0.34975315  0.37894619  0.94536124    -0.97400
O351        O  0.39705769  0.34426812  0.87349324    -0.78200
Zr352      Zr  0.46304607  0.01435742  0.98307985     2.70100
O353        O  0.39348312  0.47696462  0.51594335    -0.79400
O354        O  0.99289515  0.07925722  0.52327318    -0.98500
Zr355      Zr  0.01995699  0.45990508  0.94528655     2.21500
Zr356      Zr  0.47622573  0.01811370  0.89451507     2.11100
O357        O  0.43113423  0.47701245  0.93587268    -2.47200
O358        O  0.45343602  0.44784578  0.96175218    -0.79200
O359        O  0.46537787  0.45040828  0.87236887    -0.71400
O360        O  0.03230710  0.02848943  0.96709637    -2.32400
O361        O  0.48666978  0.41996155  0.89800950    -2.28600
O362        O  0.01028040  0.05768368  0.94176373    -0.73200
H363        H  0.06081732  0.04724971  0.86056045     0.78800
H364        H  0.04620928  0.04280098  0.98621444     0.79900
H365        H  0.40460659  0.47353306  0.94084569     0.82100
H366        H  0.48261772  0.39285159  0.89094941     0.79700
H367        H  0.08145590  0.13443411  0.97821788     0.42800
H368        H  0.00351780  0.10162083  0.51175738     0.41700
H369        H  0.37376230  0.45890679  0.49976923     0.41400
H370        H  0.34576263  0.40202318  0.95338044     0.39300
H371        H  0.41312814  0.35337873  0.85222575     0.42500
H372        H  0.49854320  0.37446593  0.82767320     0.37300
H373        H  0.10805150  0.02195917  0.82045267     0.43400
H374        H  0.16427365  0.11020913  0.89976857     0.39800
H375        H  0.33080797  0.35862844  0.92872111     0.44700
H376        H  0.01545692  0.39847407  0.79777471     0.43400
H377        H  0.14135804  0.06769646  0.87455355     0.43600
H378        H  0.47074705  0.07509842  0.54204286     0.43900
O379        O  0.05786527  0.42435077  0.60815225    -0.74900
O380        O  0.06228215  0.43399448  0.66117861    -0.53800
C381        C  0.06912146  0.42091484  0.63011012     0.78800
O382        O  0.07851565  0.11205822  0.63964118    -0.59500
O383        O  0.01315665  0.08072249  0.62920452    -0.52600
C384        C  0.05234875  0.11100948  0.62911432     0.70800
O385        O  0.12894725  0.07388834  0.68576954    -0.74100
O386        O  0.10062115  0.51579694  0.70653971    -0.54700
C387        C  0.13076603  0.05263006  0.69970058     0.76800
O388        O  0.00646319  0.46463731  0.56423482    -0.59200
O389        O  0.47587928  0.99959495  0.58602207    -0.52400
C390        C  0.49042668  0.48059925  0.56151325     0.73400
Zr391      Zr  0.02240345  0.45393585  0.60721208     2.54700
O392        O  0.08380482  0.47602502  0.56436073    -0.79800
O393        O  0.48734268  0.38299584  0.57479557    -0.93200
Zr394      Zr  0.07766251  0.06810950  0.66512391     2.64700
O395        O  0.14004650  0.09208627  0.62320104    -0.98200
O396        O  0.11044601  0.13759369  0.70127061    -0.80200
O397        O  0.06580236  0.50022240  0.64879995    -0.83600
O398        O  0.03597570  0.02252895  0.62280321    -2.18300
O399        O  0.37337878  0.40396650  0.64548137    -0.67000
O400        O  0.40071877  0.46634098  0.63255786    -0.51600
C401        C  0.37148179  0.42720993  0.63399096     0.71800
O402        O  0.49006609  0.01459420  0.77599669    -0.59900
O403        O  0.02224546  0.48027214  0.75431718    -0.51900
C404        C  0.50582334  0.49561007  0.77843624     0.73600
O405        O  0.44336528  0.05932887  0.73120457    -0.71300
O406        O  0.44040751  0.05025813  0.67792127    -0.50000
C407        C  0.43308285  0.06332766  0.70884507     0.75000
O408        O  0.41821353  0.36970266  0.70161850    -0.66600
O409        O  0.48370907  0.39908419  0.71065855    -0.53800
C410        C  0.44404999  0.36988355  0.71184399     0.73300
Zr411      Zr  0.42100918  0.41228850  0.67304858     2.77500
O412        O  0.35579427  0.39053060  0.71164440    -0.97400
O413        O  0.38898207  0.34206134  0.63797053    -0.78200
Zr414      Zr  0.47764919  0.02846494  0.73289366     2.70100
O415        O  0.40958766  0.49653945  0.77237120    -0.79400
O416        O  0.01817863  0.09924252  0.76443900    -0.98500
Zr417      Zr  0.02836016  0.46822203  0.69571243     2.21500
Zr418      Zr  0.47194916  0.01355203  0.64458733     2.11100
O419        O  0.43244126  0.47952095  0.69102313    -2.47200
O420        O  0.46173037  0.45685824  0.71622141    -0.79200
O421        O  0.45831715  0.44442612  0.62652759    -0.71400
O422        O  0.04172288  0.03761343  0.71262783    -2.32400
O423        O  0.48659681  0.42111388  0.65255982    -2.28600
O424        O  0.01267260  0.06018133  0.68672409    -0.73200
H425        H  0.04935379  0.03562172  0.60386934     0.78800
H426        H  0.05908663  0.05450994  0.72968217     0.79900
H427        H  0.40576617  0.47605143  0.69786317     0.82100
H428        H  0.48238486  0.39403026  0.64696741     0.79700
H429        H  0.09065843  0.14536832  0.70616110     0.42800
H430        H  0.99930762  0.10011063  0.78523092     0.41700
H431        H  0.40455998  0.47172197  0.77677868     0.41400
H432        H  0.33763057  0.35925973  0.70508826     0.39300
H433        H  0.40341439  0.34732780  0.61546143     0.42500
H434        H  0.50715770  0.38393108  0.55421835     0.37300
H435        H  0.10252889  0.00758804  0.57204262     0.43400
H436        H  0.12960057  0.08359711  0.60261844     0.39800
H437        H  0.36310240  0.39591695  0.73292478     0.45300
H438        H  0.95572869  0.37755018  0.57486436     0.43400
H439        H  0.15606512  0.12336280  0.62850142     0.43600
H440        H  0.53746128  0.09963126  0.77417786     0.43900
C441        C  0.12471609  0.19986065  0.58281640    -0.21000
C442        C  0.11133420  0.22649378  0.59964419    -0.09000
C443        C  0.07450386  0.21177544  0.62325991     0.29900
C444        C  0.05339981  0.17236560  0.63120061    -0.21000
C445        C  0.06913070  0.14771527  0.61620133    -0.09000
C446        C  0.10414423  0.16101845  0.59130278     0.29900
F447        F  0.11942846  0.13718731  0.57621861    -0.19500
H448        H  0.15256988  0.21022942  0.56428106     0.18200
H449        H  0.02652462  0.16242999  0.65065025     0.18200
F450        F  0.06092100  0.23674558  0.64068371    -0.19500
C451        C  0.30904106  0.42443044  0.63624286    -0.21000
C452        C  0.33234409  0.40724389  0.62224771    -0.09000
C453        C  0.31625308  0.36905255  0.59910438     0.29900
C454        C  0.27688100  0.34792838  0.59055711    -0.21000
C455        C  0.25249932  0.36406889  0.60542697    -0.09000
C456        C  0.26921776  0.40290318  0.62831400     0.29900
F457        F  0.24629187  0.41892931  0.64458185    -0.19500
H458        H  0.32083157  0.45351601  0.65457295     0.18200
H459        H  0.26510589  0.31846918  0.57266531     0.18200
F460        F  0.33855355  0.35208454  0.58493897    -0.19500
C461        C  0.10980453  0.35334296  0.57986253    -0.21000
C462        C  0.13066750  0.35876051  0.60243612    -0.09000
C463        C  0.13228248  0.38532532  0.63327067     0.29900
C464        C  0.11285592  0.40581748  0.64162786    -0.21000
C465        C  0.09142834  0.40041139  0.61940466    -0.09000
C466        C  0.09071868  0.37447394  0.58803948     0.29900
F467        F  0.07094709  0.36874635  0.56557687    -0.19500
H468        H  0.10830023  0.33276385  0.55601861     0.18200
H469        H  0.11433654  0.42571118  0.66581242     0.18200
F470        F  0.15140228  0.39018109  0.65583763    -0.19500
C471        C  0.07027689  0.16466649  0.85734242    -0.21000
C472        C  0.08256732  0.16262158  0.88233945    -0.09000
C473        C  0.11628544  0.20003094  0.89784461     0.29900
C474        C  0.13802851  0.23800458  0.88768836    -0.21000
C475        C  0.12663816  0.23988011  0.86213676    -0.09000
C476        C  0.09200717  0.20306862  0.84738507     0.29900
F477        F  0.07999331  0.20399965  0.82278831    -0.19500
H478        H  0.04448113  0.13640820  0.84500538     0.18200
H479        H  0.16374265  0.26627014  0.90011631     0.18200
F480        F  0.12816106  0.20024831  0.92315700    -0.19500
C481        C  0.32723392  0.37778163  0.83762146    -0.21000
C482        C  0.34480177  0.41763179  0.85863973    -0.09000
C483        C  0.32460160  0.43795555  0.86807611     0.29900
C484        C  0.28464803  0.41614861  0.86017394    -0.21000
C485        C  0.26510283  0.37443133  0.84173014    -0.09000
C486        C  0.28838048  0.35690824  0.82833979     0.29900
F487        F  0.27258860  0.31858244  0.80762721    -0.19500
H488        H  0.34308238  0.36223188  0.82917524     0.18200
H489        H  0.26791575  0.43082619  0.87062369     0.18200
F490        F  0.34161082  0.47720495  0.88745440    -0.19500
C491        C  0.13951421  0.38249148  0.83281961    -0.21000
C492        C  0.13191921  0.35941912  0.85424966    -0.09000
C493        C  0.10464734  0.35740358  0.88414600     0.29900
C494        C  0.08545023  0.37810415  0.89240581    -0.21000
C495        C  0.09243325  0.40096128  0.87100962    -0.09000
C496        C  0.11974208  0.40293492  0.84093415     0.29900
F497        F  0.12805060  0.42515050  0.81967650    -0.19500
H498        H  0.16068882  0.38456302  0.80979007     0.18200
H499        H  0.06471460  0.37585897  0.91570533     0.18200
F500        F  0.09728075  0.33623996  0.90589897    -0.19500
C501        C  0.41211149  0.11006651  0.75022032    -0.21000
C502        C  0.41110636  0.08416453  0.71890470    -0.09000
C503        C  0.38946010  0.07900662  0.69681812     0.29900
C504        C  0.36985382  0.09946625  0.70583896    -0.21000
C505        C  0.37118423  0.12541948  0.73687160    -0.09000
C506        C  0.39265097  0.13095739  0.75904178     0.29900
F507        F  0.39441509  0.15619964  0.78917715    -0.19500
H508        H  0.42851715  0.11470406  0.76766619     0.18200
H509        H  0.35375302  0.09530493  0.68835758     0.18200
F510        F  0.38663136  0.05381703  0.66651740    -0.19500
C511        C  0.42259701  0.27153074  0.72310255    -0.21000
C512        C  0.38436236  0.25613323  0.74501932    -0.09000
C513        C  0.36921611  0.28163406  0.75904957     0.29900
C514        C  0.38970036  0.31947698  0.74889524    -0.21000
C515        C  0.42637354  0.33333763  0.72557917    -0.09000
C516        C  0.44364409  0.30998962  0.71361474     0.29900
F517        F  0.47879045  0.32245589  0.69063165    -0.19500
H518        H  0.43481710  0.25252254  0.71147803     0.18200
H519        H  0.37639510  0.33757586  0.75870138     0.18200
F520        F  0.33371507  0.26922421  0.78164262    -0.19500
C521        C  0.24690770  0.12698908  0.70478890    -0.21000
C522        C  0.24897618  0.11681013  0.73087553    -0.09000
C523        C  0.21233104  0.08300380  0.74525868     0.29900
C524        C  0.17395109  0.06110253  0.73438665    -0.21000
C525        C  0.17170382  0.07275183  0.70917079    -0.09000
C526        C  0.20895083  0.10554412  0.69408495     0.29900
F527        F  0.20900202  0.11714191  0.66887057    -0.19500
H528        H  0.27500771  0.15198069  0.69260810     0.18200
H529        H  0.14580802  0.03599204  0.74640600     0.18200
F530        F  0.21328595  0.07228858  0.77052156    -0.19500
C531        C  0.39920459  0.12964938  0.95987258    -0.21000
C532        C  0.36887882  0.12332774  0.98820996    -0.09000
C533        C  0.36059723  0.09829571  0.50772071     0.29900
C534        C  0.38041096  0.07772561  0.99884149    -0.21000
C535        C  0.40990655  0.08311204  0.96987173    -0.09000
C536        C  0.41966473  0.11000135  0.95078372     0.29900
F537        F  0.44933751  0.11778176  0.92346477    -0.19500
H538        H  0.40653083  0.14933336  0.94429947     0.18200
H539        H  0.37433574  0.05992733  0.51559570     0.18200
F540        F  0.33313804  0.09413713  0.53618029    -0.19500
C541        C  0.41049495  0.26039902  0.96391116    -0.21000
C542        C  0.37277166  0.24533316  0.98641033    -0.09000
C543        C  0.35598472  0.26890059  0.49887284     0.29900
C544        C  0.37673679  0.30757205  0.98898772    -0.21000
C545        C  0.41361986  0.32166611  0.96589468    -0.09000
C546        C  0.43114747  0.29858778  0.95418628     0.29900
F547        F  0.46712338  0.31192174  0.93206861    -0.19500
H548        H  0.42332463  0.24191639  0.95279410     0.18200
H549        H  0.36310492  0.32515301  0.49915990     0.18200
F550        F  0.32192361  0.25743285  0.52288572    -0.19500
C551        C  0.17151670  0.09889783  0.00079632    -0.21000
C552        C  0.15681496  0.06213065  0.97625938    -0.09000
C553        C  0.18007800  0.04479490  0.96253377     0.29900
C554        C  0.21964259  0.06643669  0.97104196    -0.21000
C555        C  0.23586906  0.10503493  0.99390280    -0.09000
C556        C  0.21031859  0.11972317  0.01013980     0.29900
F557        F  0.22257814  0.15360958  0.53494146    -0.19500
H558        H  0.15343281  0.11213465  0.01201916     0.18200
H559        H  0.23865712  0.05446547  0.95812706     0.18200
F560        F  0.16616896  0.00898620  0.93892524    -0.19500
C561        C  0.34706995  0.64204299  0.99288209     0.03500
C562        C  0.30315521  0.61564501  0.99449429    -0.12700
C563        C  0.28177833  0.63162047  0.99397822     0.01000
C564        C  0.30482086  0.67406547  0.99146568    -0.11200
C565        C  0.34853636  0.70103894  0.99035590     0.03500
C566        C  0.36928984  0.68488014  0.99173813    -0.10600
H567        H  0.28596835  0.58231044  0.99442918     0.09100
H568        H  0.28886493  0.68524327  0.98800299     0.06600
H569        H  0.40315811  0.70513979  0.99041554     0.06400
C570        C  0.35042253  0.64639629  0.24487320     0.03500
C571        C  0.37490069  0.69071161  0.24851332    -0.12700
C572        C  0.35721133  0.71067221  0.24829708     0.01000
C573        C  0.31460332  0.68565062  0.24514271    -0.11200
C574        C  0.28995744  0.64147357  0.24134475     0.03500
C575        C  0.30778339  0.62209644  0.24193520    -0.10600
H576        H  0.40821767  0.70916120  0.24922120     0.09100
H577        H  0.30118177  0.70013192  0.24287072     0.06600
H578        H  0.28953634  0.58781551  0.23727750     0.06400
C579        C  0.15218652  0.83842406  0.34804739     0.03500
C580        C  0.19618733  0.86128905  0.34061881    -0.12700
C581        C  0.21667596  0.84403984  0.34059389     0.01000
C582        C  0.19202174  0.80265137  0.34649164    -0.11200
C583        C  0.14796573  0.77891451  0.35261859     0.03500
C584        C  0.12826168  0.79688270  0.35308406    -0.10600
H585        H  0.21439432  0.89356921  0.33730979     0.09100
H586        H  0.20697654  0.78959514  0.34851905     0.06600
H587        H  0.09438834  0.77972609  0.35975461     0.06400
C588        C  0.14883281  0.83432967  0.09459643     0.03500
C589        C  0.19154187  0.85878081  0.09701822    -0.12700
C590        C  0.20951657  0.83969296  0.09826764     0.01000
C591        C  0.18433569  0.79564096  0.09604805    -0.11200
C592        C  0.14157577  0.77078752  0.09321269     0.03500
C593        C  0.12430251  0.79039297  0.09179682    -0.10600
H594        H  0.21003196  0.89286081  0.09973662     0.09100
H595        H  0.19733239  0.78110043  0.09897323     0.06600
H596        H  0.09117629  0.77196323  0.09041544     0.06400
O597        O  0.06471430  0.93107738  0.36024243    -0.74900
O598        O  0.05401244  0.92683895  0.41323521    -0.53800
C599        C  0.06847127  0.92076381  0.38257693     0.78800
O600        O  0.08027497  0.61804008  0.40623330    -0.59500
O601        O  0.02146522  0.58924395  0.38616067    -0.52600
C602        C  0.05848258  0.62026130  0.39305718     0.70800
O603        O  0.11888430  0.56862985  0.45268754    -0.74100
O604        O  0.08697210  0.00362285  0.46317224    -0.54700
C605        C  0.11843991  0.54260174  0.46258010     0.76800
O606        O  0.01996372  0.97575969  0.31375185    -0.59200
O607        O  0.48927987  0.51332926  0.33654881    -0.52400
C608        C  0.50530474  0.99529792  0.31167717     0.73400
Zr609      Zr  0.03124894  0.96200286  0.35755010     2.54700
O610        O  0.09972948  0.99937045  0.32387260    -0.79800
O611        O  0.49859840  0.89406957  0.31779446    -0.93200
Zr612      Zr  0.07519750  0.56669986  0.42557830     2.64700
O613        O  0.14207617  0.59371932  0.38869171    -0.98200
O614        O  0.10560181  0.63333400  0.46523751    -0.80200
O615        O  0.06519889  0.00056036  0.40473401    -0.83600
O616        O  0.04323751  0.52928346  0.37755989    -2.18300
O617        O  0.37825607  0.90640836  0.38313269    -0.67000
O618        O  0.40843276  0.97215699  0.37500930    -0.51600
C619        C  0.37915855  0.93230110  0.37250138     0.71800
O620        O  0.47644081  0.50007939  0.02579209    -0.59900
O621        O  0.00531025  0.96570963  0.50474976    -0.51900
C622        C  0.48872575  0.98164517  0.02928444     0.73600
O623        O  0.43271619  0.54836537  0.48200232    -0.71300
O624        O  0.44202430  0.55194486  0.42901010    -0.50000
C625        C  0.42940729  0.55942790  0.45992795     0.75000
O626        O  0.40925245  0.86163845  0.44300419    -0.66600
O627        O  0.47156513  0.88903021  0.45704998    -0.53800
C628        C  0.43243005  0.86013459  0.45520429     0.73300
Zr629      Zr  0.41886091  0.90850928  0.41425646     2.77500
O630        O  0.34885503  0.87696656  0.44695668    -0.97400
O631        O  0.39644467  0.84291197  0.37355967    -0.78200
Zr632      Zr  0.46289661  0.51345619  0.48315037     2.70100
O633        O  0.39428496  0.97874340  0.01687473    -0.79400
O634        O  0.99265822  0.58025334  0.02408882    -0.98500
Zr635      Zr  0.01850993  0.95980320  0.44615772     2.21500
Zr636      Zr  0.47649283  0.51812373  0.39499668     2.11100
O637        O  0.42870065  0.97507987  0.43601626    -2.47200
O638        O  0.45182959  0.94674004  0.46181797    -0.79200
O639        O  0.46344036  0.94879869  0.37248727    -0.71400
O640        O  0.03093724  0.52714855  0.46774031    -2.32400
O641        O  0.48530042  0.91904357  0.39821009    -2.28600
O642        O  0.00879794  0.55594415  0.44155067    -0.73200
H643        H  0.05988003  0.54616195  0.36072112     0.78800
H644        H  0.04461773  0.54134374  0.48697988     0.79900
H645        H  0.40199598  0.97122855  0.44091618     0.82100
H646        H  0.48148553  0.89205200  0.39116276     0.79700
H647        H  0.09692518  0.62505131  0.48659045     0.42800
H648        H  0.00517553  0.60300516  0.01228274     0.41700
H649        H  0.37454094  0.97177783  0.00389288     0.41400
H650        H  0.34786439  0.90130989  0.46060741     0.39300
H651        H  0.41230326  0.85220658  0.35232716     0.42500
H652        H  0.49449565  0.87349252  0.32774581     0.37300
H653        H  0.09839487  0.47331423  0.30338442     0.43400
H654        H  0.13514035  0.58731914  0.36695573     0.39800
H655        H  0.32928382  0.86307428  0.43119496     0.44700
H656        H  0.02909339  0.89583908  0.30503771     0.43400
H657        H  0.15775055  0.62490484  0.39552018     0.43600
H658        H  0.46840382  0.57833726  0.03896933     0.43900
O659        O  0.06170731  0.92703714  0.10753041    -0.74900
O660        O  0.06208092  0.93303326  0.16085820    -0.53800
C661        C  0.07001891  0.92091386  0.12978687     0.78800
O662        O  0.08013585  0.61050365  0.13685160    -0.59500
O663        O  0.01487825  0.58078513  0.12717847    -0.52600
C664        C  0.05443073  0.61011122  0.12622166     0.70800
O665        O  0.12805542  0.57143895  0.18550295    -0.74100
O666        O  0.10144456  0.01590185  0.20744418    -0.54700
C667        C  0.12982199  0.55030201  0.19962851     0.76800
O668        O  0.01274731  0.96857030  0.06273384    -0.59200
O669        O  0.47980523  0.50237223  0.08549407    -0.52400
C670        C  0.48909411  0.98114588  0.06235429     0.73400
Zr671      Zr  0.02923860  0.95937885  0.10606251     2.54700
O672        O  0.09448315  0.98952753  0.06736331    -0.79800
O673        O  0.48004081  0.87986507  0.07625579    -0.93200
Zr674      Zr  0.07801853  0.56712837  0.16432746     2.64700
O675        O  0.14222799  0.59215989  0.12415856    -0.98200
O676        O  0.10889813  0.63567426  0.20173664    -0.80200
O677        O  0.06997864  0.00368200  0.14935991    -0.83600
O678        O  0.03613072  0.52160454  0.12216311    -2.18300
O679        O  0.37259567  0.90521178  0.14718433    -0.67000
O680        O  0.39959679  0.96818713  0.13554925    -0.51600
C681        C  0.37067069  0.92879225  0.13615892     0.71800
O682        O  0.48877805  0.51414803  0.27655629    -0.59900
O683        O  0.02207254  0.97864973  0.25368309    -0.51900
C684        C  0.50615539  0.99680327  0.27862161     0.73600
O685        O  0.44372742  0.55932990  0.23123382    -0.71300
O686        O  0.44160424  0.55087052  0.17782263    -0.50000
C687        C  0.43388646  0.56361367  0.20879643     0.75000
O688        O  0.41648123  0.87136299  0.20456684    -0.66600
O689        O  0.48246536  0.89907480  0.21112202    -0.53800
C690        C  0.44256287  0.87061883  0.21351614     0.73300
Zr691      Zr  0.41932685  0.91456709  0.17648693     2.77500
O692        O  0.35819091  0.89956834  0.21887064    -0.97400
O693        O  0.38061647  0.84210339  0.14562853    -0.78200
Zr694      Zr  0.47647730  0.52712439  0.23282375     2.70100
O695        O  0.41800484  0.00823544  0.27709317    -0.79400
O696        O  0.01724962  0.59806779  0.26605555    -0.98500
Zr697      Zr  0.03018443  0.96926237  0.19508712     2.21500
Zr698      Zr  0.47444110  0.51533816  0.14414728     2.11100
O699        O  0.43329136  0.98301993  0.19320126    -2.47200
O700        O  0.46245018  0.96011890  0.21799609    -0.79200
O701        O  0.45571144  0.94441967  0.12873201    -0.71400
O702        O  0.04199371  0.53685714  0.21198060    -2.32400
O703        O  0.48338872  0.92033984  0.15422215    -2.28600
O704        O  0.01362840  0.56028727  0.18617082    -0.73200
H705        H  0.04989830  0.53449650  0.10309710     0.78800
H706        H  0.05931395  0.55374243  0.22907261     0.79900
H707        H  0.40715911  0.98065856  0.20059713     0.82100
H708        H  0.47831330  0.89291022  0.14907800     0.79700
H709        H  0.08619036  0.64001446  0.21026897     0.42800
H710        H  0.01845233  0.61692771  0.25616063     0.41700
H711        H  0.39696243  0.97802699  0.26862086     0.41400
H712        H  0.33386813  0.87439078  0.20800267     0.39300
H713        H  0.40125883  0.83491454  0.13681176     0.42500
H714        H  0.49387321  0.88188852  0.05314697     0.37300
H715        H  0.09999018  0.49982779  0.06811488     0.43400
H716        H  0.13244464  0.57834061  0.10254453     0.39800
H717        H  0.35989377  0.88901315  0.23480604     0.45300
H718        H  0.97251653  0.88700648  0.06324851     0.43400
H719        H  0.15498340  0.62249600  0.12623557     0.43600
H720        H  0.49338056  0.59754296  0.28594865     0.43900
C721        C  0.12917123  0.70024129  0.08083810    -0.21000
C722        C  0.11439323  0.72584384  0.09652294    -0.09000
C723        C  0.07617598  0.70984844  0.11860812     0.29900
C724        C  0.05498467  0.67035320  0.12630663    -0.21000
C725        C  0.07191752  0.64675777  0.11275552    -0.09000
C726        C  0.10829317  0.66111072  0.08905485     0.29900
F727        F  0.12423034  0.63782134  0.07464232    -0.19500
H728        H  0.15800287  0.71144753  0.06331559     0.18200
H729        H  0.02696780  0.65960580  0.14469753     0.18200
F730        F  0.06118610  0.73375670  0.13510713    -0.19500
C731        C  0.30680605  0.92389417  0.13935380    -0.21000
C732        C  0.33199365  0.90896920  0.12382426    -0.09000
C733        C  0.31827956  0.87307553  0.09836837     0.29900
C734        C  0.27924529  0.85184844  0.08912627    -0.21000
C735        C  0.25297096  0.86561097  0.10553486    -0.09000
C736        C  0.26730170  0.90211061  0.13073956     0.29900
F737        F  0.24210392  0.91508804  0.14866538    -0.19500
H738        H  0.31681466  0.95116249  0.15939468     0.18200
H739        H  0.26908974  0.82401896  0.06959126     0.18200
F740        F  0.34248935  0.85840289  0.08267549    -0.19500
C741        C  0.13061213  0.87308267  0.07906518    -0.21000
C742        C  0.12786371  0.85528710  0.10232539    -0.09000
C743        C  0.10565282  0.85833773  0.13397324     0.29900
C744        C  0.08676961  0.87939979  0.14242912    -0.21000
C745        C  0.08954054  0.89776657  0.11945052    -0.09000
C746        C  0.11139727  0.89410341  0.08744637     0.29900
F747        F  0.11532803  0.91182767  0.06462770    -0.19500
H748        H  0.14782904  0.87090547  0.05458463     0.18200
H749        H  0.06996503  0.88133927  0.16713991     0.18200
F750        F  0.10295427  0.84155295  0.15691676    -0.19500
C751        C  0.06585629  0.66328467  0.35977137    -0.21000
C752        C  0.07847187  0.66132285  0.38459539    -0.09000
C753        C  0.11237052  0.69874002  0.39985356     0.29900
C754        C  0.13458140  0.73649214  0.38912543    -0.21000
C755        C  0.12314957  0.73818694  0.36348427    -0.09000
C756        C  0.08791361  0.70144716  0.34931680     0.29900
F757        F  0.07578747  0.70204759  0.32461745    -0.19500
H758        H  0.03976888  0.63502854  0.34772404     0.18200
H759        H  0.16072490  0.76473378  0.40112922     0.18200
F760        F  0.12400994  0.69907240  0.42537247    -0.19500
C761        C  0.32541097  0.87475353  0.33637719    -0.21000
C762        C  0.34297144  0.91464292  0.35736097    -0.09000
C763        C  0.32273035  0.93489629  0.36668138     0.29900
C764        C  0.28271984  0.91296821  0.35887421    -0.21000
C765        C  0.26293388  0.87106287  0.34070977    -0.09000
C766        C  0.28620347  0.85349299  0.32744421     0.29900
F767        F  0.27015430  0.81480205  0.30726604    -0.19500
H768        H  0.34137501  0.85932404  0.32792994     0.18200
H769        H  0.26610183  0.92776052  0.36932129     0.18200
F770        F  0.33970174  0.97420206  0.38598215    -0.19500
C771        C  0.13540734  0.87930031  0.33345837    -0.21000
C772        C  0.13154620  0.86005949  0.35622003    -0.09000
C773        C  0.10830863  0.86216144  0.38762180     0.29900
C774        C  0.08793778  0.88168713  0.39568211    -0.21000
C775        C  0.09066267  0.90020020  0.37283232    -0.09000
C776        C  0.11504551  0.89917102  0.34157195     0.29900
F777        F  0.11973281  0.91772085  0.31901968    -0.19500
H778        H  0.15388451  0.87858782  0.30934511     0.18200
H779        H  0.06998599  0.88227069  0.42006248     0.18200
F780        F  0.10619137  0.84621333  0.41089151    -0.19500
C781        C  0.41397689  0.61133052  0.24981286    -0.21000
C782        C  0.41169446  0.58418878  0.21896712    -0.09000
C783        C  0.38802057  0.57699054  0.19763336     0.29900
C784        C  0.36801309  0.59706952  0.20671923    -0.21000
C785        C  0.37089923  0.62467376  0.23713774    -0.09000
C786        C  0.39387987  0.63164172  0.25881865     0.29900
F787        F  0.39637499  0.65751821  0.28872084    -0.19500
H788        H  0.43175308  0.61726244  0.26676493     0.18200
H789        H  0.35049550  0.59141427  0.18966606     0.18200
F790        F  0.38355952  0.55007343  0.16805315    -0.19500
C791        C  0.42147396  0.77128909  0.22255582    -0.21000
C792        C  0.38382516  0.75579099  0.24509855    -0.09000
C793        C  0.36867780  0.78128619  0.26004896     0.29900
C794        C  0.38900603  0.81964293  0.25065573    -0.21000
C795        C  0.42509240  0.83362898  0.22670974    -0.09000
C796        C  0.44191173  0.80981767  0.21335726     0.29900
F797        F  0.47577830  0.82179903  0.18915936    -0.19500
H798        H  0.43344463  0.75212980  0.21011598     0.18200
H799        H  0.37583792  0.83786766  0.26136435     0.18200
F800        F  0.33312622  0.76823480  0.28262976    -0.19500
C801        C  0.24603521  0.62533564  0.20430816    -0.21000
C802        C  0.24861799  0.61581668  0.23051328    -0.09000
C803        C  0.21219228  0.58232600  0.24537196     0.29900
C804        C  0.17354488  0.55982135  0.23463749    -0.21000
C805        C  0.17085420  0.57070392  0.20914178    -0.09000
C806        C  0.20785452  0.60340970  0.19380610     0.29900
F807        F  0.20741236  0.61455992  0.16855522    -0.19500
H808        H  0.27390455  0.65018132  0.19186427     0.18200
H809        H  0.14558826  0.53491507  0.24695697     0.18200
F810        F  0.21369089  0.57255697  0.27095347    -0.19500
C811        C  0.40176459  0.63120082  0.46072941    -0.21000
C812        C  0.36934499  0.62308640  0.48769242    -0.09000
C813        C  0.36068540  0.59770203  0.00686976     0.29900
C814        C  0.37851891  0.57560529  0.49823448    -0.21000
C815        C  0.40991081  0.58260018  0.47046462    -0.09000
C816        C  0.42182906  0.61123238  0.45210160     0.29900
F817        F  0.45296395  0.62006070  0.42574429    -0.19500
H818        H  0.41079118  0.65219893  0.44562908     0.18200
H819        H  0.37368271  0.55849467  0.01439521     0.18200
F820        F  0.33017075  0.59015063  0.03359285    -0.19500
C821        C  0.41036961  0.76054285  0.46379351    -0.21000
C822        C  0.37239844  0.74469580  0.48592629    -0.09000
C823        C  0.35738205  0.76951608  0.99766995     0.29900
C824        C  0.37597966  0.80719763  0.49014804    -0.21000
C825        C  0.41296820  0.82187288  0.46717942    -0.09000
C826        C  0.43070047  0.79899730  0.45473479     0.29900
F827        F  0.46630162  0.81259857  0.43219842    -0.19500
H828        H  0.42340008  0.74226711  0.45221452     0.18200
H829        H  0.36518025  0.82624602  0.99838947     0.18200
F830        F  0.32264466  0.75761684  0.02103305    -0.19500
C831        C  0.17118192  0.59724088  0.49954680    -0.21000
C832        C  0.15583716  0.55996945  0.47554189    -0.09000
C833        C  0.17932956  0.54292169  0.46116771     0.29900
C834        C  0.21929415  0.56481315  0.46903870    -0.21000
C835        C  0.23600692  0.60376120  0.49147478    -0.09000
C836        C  0.21069303  0.61873947  0.50783841     0.29900
F837        F  0.22397619  0.65297348  0.03251170    -0.19500
H838        H  0.15315265  0.61053228  0.51097123     0.18200
H839        H  0.23825783  0.55283174  0.45585863     0.18200
F840        F  0.16531376  0.50733412  0.43734391    -0.19500
C841        C  0.34617375  0.64172966  0.49389241     0.03500
C842        C  0.30230964  0.61546338  0.49516714    -0.12700
C843        C  0.28135105  0.63155707  0.49405746     0.01000
C844        C  0.30477671  0.67398512  0.49142492    -0.11200
C845        C  0.34820561  0.70110283  0.49163669     0.03500
C846        C  0.36863633  0.68476612  0.49328103    -0.10600
H847        H  0.28490156  0.58211761  0.49516933     0.09100
H848        H  0.28935227  0.68527181  0.48723839     0.06600
H849        H  0.40240496  0.70501757  0.49258571     0.06400
C850        C  0.35239906  0.64869730  0.74522327     0.03500
C851        C  0.37625738  0.69311700  0.75036300    -0.12700
C852        C  0.35842744  0.71318939  0.75071783     0.01000
C853        C  0.31588325  0.68814101  0.74727585    -0.11200
C854        C  0.29162547  0.64384876  0.74232150     0.03500
C855        C  0.30981653  0.62435500  0.74191908    -0.10600
H856        H  0.40945629  0.71173418  0.75153455     0.09100
H857        H  0.30229400  0.70273005  0.74552356     0.06600
H858        H  0.29179035  0.59006668  0.73647075     0.06400
C859        C  0.15225426  0.83797971  0.84751040     0.03500
C860        C  0.19638859  0.86167138  0.84110682    -0.12700
C861        C  0.21718874  0.84481240  0.84120294     0.01000
C862        C  0.19289047  0.80328106  0.84655027    -0.11200
C863        C  0.14885152  0.77889172  0.85191995     0.03500
C864        C  0.12869676  0.79620347  0.85194442    -0.10600
H865        H  0.21439079  0.89413486  0.83830647     0.09100
H866        H  0.20808617  0.79054580  0.84871689     0.06600
H867        H  0.09471179  0.77828348  0.85774879     0.06400
C868        C  0.14834627  0.83590279  0.59857176     0.03500
C869        C  0.19124083  0.85848554  0.59957417    -0.12700
C870        C  0.20770055  0.83820893  0.60130786     0.01000
C871        C  0.18096080  0.79436988  0.60011550    -0.11200
C872        C  0.13812602  0.77102581  0.59813264     0.03500
C873        C  0.12206075  0.79200436  0.59699128    -0.10600
H874        H  0.21128764  0.89232487  0.60050260     0.09100
H875        H  0.19285196  0.77880326  0.60309895     0.06600
H876        H  0.08880303  0.77475267  0.59673112     0.06400
O877        O  0.06617769  0.93202666  0.85811574    -0.74900
O878        O  0.05724135  0.92931433  0.91124197    -0.53800
C879        C  0.07061555  0.92225175  0.88045417     0.78800
O880        O  0.08270035  0.61805960  0.90521808    -0.59500
O881        O  0.02424473  0.58899483  0.88450269    -0.52600
C882        C  0.06132152  0.61999837  0.89133451     0.70800
O883        O  0.11937737  0.56814548  0.95294020    -0.74100
O884        O  0.08975307  0.00549669  0.96143694    -0.54700
C885        C  0.11864014  0.54192504  0.96282883     0.76800
O886        O  0.02076047  0.97847231  0.81362823    -0.59200
O887        O  0.49076796  0.51275319  0.83594420    -0.52400
C888        C  0.50675202  0.99759676  0.81178538     0.73400
Zr889      Zr  0.03183104  0.96271903  0.85627754     2.54700
O890        O  0.09638778  0.99163852  0.81681659    -0.79800
O891        O  0.50557803  0.89953510  0.81608138    -0.93200
Zr892      Zr  0.07627632  0.56664862  0.92548237     2.64700
O893        O  0.14405346  0.59555912  0.88965061    -0.98200
O894        O  0.10439904  0.63122174  0.96723191    -0.80200
O895        O  0.06696545  0.00172731  0.90291886    -0.83600
O896        O  0.04383904  0.52903356  0.87771020    -2.18300
O897        O  0.38003499  0.90778187  0.88226721    -0.67000
O898        O  0.40905547  0.97384157  0.87559304    -0.51600
C899        C  0.38021562  0.93383722  0.87258093     0.71800
O900        O  0.47350761  0.49804562  0.52630693    -0.59900
O901        O  0.01075257  0.96817665  0.00311200    -0.51900
C902        C  0.48975773  0.98128121  0.52856645     0.73600
O903        O  0.43623840  0.55132700  0.98239889    -0.71300
O904        O  0.44426115  0.55330496  0.92921561    -0.50000
C905        C  0.43239404  0.56176274  0.96023149     0.75000
O906        O  0.41131657  0.86236883  0.94095060    -0.66600
O907        O  0.47331090  0.88941289  0.95537693    -0.53800
C908        C  0.43434047  0.86033047  0.95287583     0.73300
Zr909      Zr  0.42063339  0.91015705  0.91336221     2.77500
O910        O  0.35012425  0.88026414  0.94510367    -0.97400
O911        O  0.39786597  0.84447731  0.87268701    -0.78200
Zr912      Zr  0.46557327  0.51535720  0.98279121     2.70100
O913        O  0.39430674  0.98060753  0.51704120    -0.79400
O914        O  0.99566717  0.58152782  0.52148546    -0.98500
Zr915      Zr  0.02112452  0.96137385  0.94471341     2.21500
Zr916      Zr  0.47784551  0.51836222  0.89452500     2.11100
O917        O  0.42961045  0.97625329  0.93555521    -2.47200
O918        O  0.45225907  0.94747368  0.96157602    -0.79200
O919        O  0.46559420  0.95111938  0.87200047    -0.71400
O920        O  0.03162693  0.52735681  0.96759641    -2.32400
O921        O  0.48749193  0.92181431  0.89804836    -2.28600
O922        O  0.01027777  0.55689323  0.94160475    -0.73200
H923        H  0.06059847  0.54575596  0.86077106     0.78800
H924        H  0.04531774  0.54145715  0.98682008     0.79900
H925        H  0.40282629  0.97217813  0.94025022     0.82100
H926        H  0.48399419  0.89496759  0.89070361     0.79700
H927        H  0.08251097  0.63665761  0.97454888     0.42800
H928        H  0.00874091  0.60326973  0.50843696     0.41700
H929        H  0.38975750  0.95624375  0.52180416     0.41400
H930        H  0.34137336  0.89739403  0.94432683     0.39300
H931        H  0.40739290  0.85306777  0.85133155     0.42500
H932        H  0.48852710  0.87642216  0.82853708     0.37300
H933        H  0.11250240  0.52142352  0.82642365     0.43400
H934        H  0.13883118  0.59562263  0.86935078     0.39800
H935        H  0.33221860  0.85224354  0.93144798     0.44700
H936        H  0.02145518  0.89875592  0.79895102     0.43400
H937        H  0.16141859  0.62586382  0.90006708     0.43600
H938        H  0.46613414  0.57701411  0.53889547     0.43900
O939        O  0.05808668  0.92534239  0.60813012    -0.74900
O940        O  0.06126754  0.93439199  0.66138521    -0.53800
C941        C  0.06880778  0.92168040  0.63036449     0.78800
O942        O  0.07768102  0.61202262  0.64182560    -0.59500
O943        O  0.01224791  0.58075884  0.63150240    -0.52600
C944        C  0.05139039  0.61109864  0.63157550     0.70800
O945        O  0.12930548  0.57394979  0.68659768    -0.74100
O946        O  0.09955169  0.01591337  0.70626204    -0.54700
C947        C  0.13154286  0.55281581  0.70031485     0.76800
O948        O  0.00442715  0.96376731  0.56433346    -0.59200
O949        O  0.47647405  0.49943414  0.58600629    -0.52400
C950        C  0.49062360  0.98146874  0.56159997     0.73400
Zr951      Zr  0.02157202  0.95401485  0.60699278     2.54700
O952        O  0.08128558  0.97782054  0.56282073    -0.79800
O953        O  0.48677492  0.88466649  0.57345685    -0.93200
Zr954      Zr  0.07755738  0.56760089  0.66612069     2.64700
O955        O  0.13964701  0.59223693  0.62384326    -0.98200
O956        O  0.10897477  0.63535805  0.70447020    -0.80200
O957        O  0.06535844  0.00044179  0.64828459    -0.83600
O958        O  0.03618176  0.52222304  0.62359045    -2.18300
O959        O  0.37407215  0.90356006  0.64583029    -0.67000
O960        O  0.39974755  0.96622264  0.63444475    -0.51600
C961        C  0.37123143  0.92672682  0.63517462     0.71800
O962        O  0.48846102  0.51170921  0.77614049    -0.59900
O963        O  0.02198661  0.98106808  0.75402431    -0.51900
C964        C  0.50726158  0.99846927  0.77856405     0.73600
O965        O  0.44486989  0.56023323  0.73191064    -0.71300
O966        O  0.43958023  0.54876833  0.67875731    -0.50000
C967        C  0.43398281  0.56359714  0.70957672     0.75000
O968        O  0.41838179  0.87245644  0.70460213    -0.66600
O969        O  0.48434432  0.90091971  0.71175501    -0.53800
C970        C  0.44443633  0.87222802  0.71410198     0.73300
Zr971      Zr  0.42182727  0.91421833  0.67464019     2.77500
O972        O  0.35640401  0.89274302  0.71289357    -0.97400
O973        O  0.39014216  0.84254348  0.64209593    -0.78200
Zr974      Zr  0.47475156  0.52489124  0.73335438     2.70100
O975        O  0.41671931  0.00682484  0.77597415    -0.79400
O976        O  0.01570641  0.59635646  0.76672760    -0.98500
Zr977      Zr  0.02750456  0.96885100  0.69551058     2.21500
Zr978      Zr  0.47176277  0.51270478  0.64467371     2.11100
O979        O  0.43381038  0.98173374  0.69166979    -2.47200
O980        O  0.46345757  0.95994858  0.71710011    -0.79200
O981        O  0.45806991  0.94508783  0.62735325    -0.71400
O982        O  0.04153689  0.53653992  0.71326942    -2.32400
O983        O  0.48691486  0.92239842  0.65327571    -2.28600
O984        O  0.01220611  0.55891991  0.68729236    -0.73200
H985        H  0.04974416  0.53571185  0.60486471     0.78800
H986        H  0.05868363  0.55356254  0.73048855     0.79900
H987        H  0.40716550  0.97833256  0.69879950     0.82100
H988        H  0.48240590  0.89520548  0.64796331     0.79700
H989        H  0.08704945  0.64078807  0.71251000     0.42800
H990        H  0.02238858  0.61579802  0.75394131     0.41700
H991        H  0.39518748  0.97723884  0.76667122     0.41400
H992        H  0.33988622  0.86143714  0.70861874     0.39300
H993        H  0.39964582  0.84634659  0.61903259     0.42500
H994        H  0.48180323  0.86593179  0.58604070     0.37300
H995        H  0.09414318  0.50475323  0.56344573     0.43400
H996        H  0.12979915  0.58800335  0.60427351     0.39800
H997        H  0.36441377  0.90206718  0.73476933     0.45300
H998        H  0.00698251  0.88057236  0.55836809     0.43400
H999        H  0.15769617  0.62336419  0.63126998     0.43600
H1000       H  0.53590602  0.59932473  0.77193843     0.43900
C1001       C  0.12356380  0.69957507  0.58506347    -0.21000
C1002       C  0.11011836  0.72619461  0.60176273    -0.09000
C1003       C  0.07341910  0.71164343  0.62547558     0.29900
C1004       C  0.05227108  0.67229136  0.63349540    -0.21000
C1005       C  0.06813023  0.64775905  0.61870217    -0.09000
C1006       C  0.10313023  0.66092623  0.59379626     0.29900
F1007       F  0.11849735  0.63712887  0.57894270    -0.19500
H1008       H  0.15142691  0.70987182  0.56653580     0.18200
H1009       H  0.02540875  0.66243123  0.65295505     0.18200
F1010       F  0.06030338  0.73694792  0.64315868    -0.19500
C1011       C  0.30820735  0.92325022  0.63835413    -0.21000
C1012       C  0.33168203  0.90630417  0.62386240    -0.09000
C1013       C  0.31543421  0.86809841  0.60068296     0.29900
C1014       C  0.27570018  0.84677440  0.59265402    -0.21000
C1015       C  0.25138675  0.86301022  0.60782139    -0.09000
C1016       C  0.26825318  0.90172482  0.63076547     0.29900
F1017       F  0.24537970  0.91773734  0.64734610    -0.19500
H1018       H  0.32009605  0.95230928  0.65671008     0.18200
H1019       H  0.26379521  0.81735209  0.57471422     0.18200
F1020       F  0.33814873  0.85164398  0.58565781    -0.19500
C1021       C  0.10787125  0.85209672  0.58255100    -0.21000
C1022       C  0.12997344  0.85931308  0.60504826    -0.09000
C1023       C  0.13303035  0.88790322  0.63498119     0.29900
C1024       C  0.11390568  0.90858518  0.64243460    -0.21000
C1025       C  0.09125534  0.90132444  0.62025827    -0.09000
C1026       C  0.08892365  0.87322763  0.58987470     0.29900
F1027       F  0.06722497  0.86499409  0.56777280    -0.19500
H1028       H  0.10511225  0.82991506  0.55944659     0.18200
H1029       H  0.11646060  0.93002723  0.66595189     0.18200
F1030       F  0.15314157  0.89454446  0.65765192    -0.19500
C1031       C  0.06900147  0.66259075  0.85738462    -0.21000
C1032       C  0.08157030  0.66085701  0.88239068    -0.09000
C1033       C  0.11501017  0.69850942  0.89797806     0.29900
C1034       C  0.13606909  0.73648684  0.88802607    -0.21000
C1035       C  0.12453742  0.73805025  0.86238866    -0.09000
C1036       C  0.09030138  0.70091698  0.84741516     0.29900
F1037       F  0.07846612  0.70139849  0.82246009    -0.19500
H1038       H  0.04345041  0.63410588  0.84494018     0.18200
H1039       H  0.16162849  0.76496477  0.90047810     0.18200
F1040       F  0.12743313  0.69890923  0.92303255    -0.19500
C1041       C  0.32636222  0.87644955  0.83670418    -0.21000
C1042       C  0.34359540  0.91605309  0.85804779    -0.09000
C1043       C  0.32251506  0.93559287  0.86848900     0.29900
C1044       C  0.28251503  0.91356550  0.86062551    -0.21000
C1045       C  0.26332469  0.87208210  0.84172804    -0.09000
C1046       C  0.28699014  0.85494452  0.82803712     0.29900
F1047       F  0.27124411  0.81644888  0.80759100    -0.19500
H1048       H  0.34274625  0.86140618  0.82774388     0.18200
H1049       H  0.26538132  0.92780457  0.87158776     0.18200
F1050       F  0.33859955  0.97408374  0.88898601    -0.19500
C1051       C  0.13716655  0.87996715  0.83246274    -0.21000
C1052       C  0.13099558  0.85887862  0.85490699    -0.09000
C1053       C  0.10540522  0.85906201  0.88540502     0.29900
C1054       C  0.08613915  0.87964450  0.89315568    -0.21000
C1055       C  0.09172552  0.90056710  0.87076175    -0.09000
C1056       C  0.11744657  0.90041461  0.84012362     0.29900
F1057       F  0.12424842  0.92057119  0.81785640    -0.19500
H1058       H  0.15712262  0.88040492  0.80895984     0.18200
H1059       H  0.06662940  0.87902943  0.91693131     0.18200
F1060       F  0.09991299  0.84028308  0.90819457    -0.19500
C1061       C  0.41890679  0.61599693  0.74882307    -0.21000
C1062       C  0.41310760  0.58557798  0.71948312    -0.09000
C1063       C  0.38761784  0.57682633  0.69898239     0.29900
C1064       C  0.36787066  0.59717016  0.70798709    -0.21000
C1065       C  0.37340483  0.62729796  0.73723865    -0.09000
C1066       C  0.39978566  0.63726457  0.75739600     0.29900
F1067       F  0.40676027  0.66722267  0.78537732    -0.19500
H1068       H  0.43883830  0.62387047  0.76479557     0.18200
H1069       H  0.34861058  0.58980448  0.69162617     0.18200
F1070       F  0.38127863  0.54826234  0.67018042    -0.19500
C1071       C  0.42342475  0.77403249  0.72572416    -0.21000
C1072       C  0.38523678  0.75840793  0.74765158    -0.09000
C1073       C  0.36994389  0.78380072  0.76177720     0.29900
C1074       C  0.39021879  0.82168039  0.75158882    -0.21000
C1075       C  0.42680722  0.83567073  0.72808312    -0.09000
C1076       C  0.44406330  0.81228854  0.71604831     0.29900
F1077       F  0.47864133  0.82428962  0.69258559    -0.19500
H1078       H  0.43577525  0.75514841  0.71399799     0.18200
H1079       H  0.37677469  0.83964619  0.76147518     0.18200
F1080       F  0.33448738  0.77120363  0.78444209    -0.19500
C1081       C  0.24779355  0.62864328  0.70557150    -0.21000
C1082       C  0.25035215  0.61843109  0.73137624    -0.09000
C1083       C  0.21397005  0.58434779  0.74567017     0.29900
C1084       C  0.17536640  0.56219442  0.73503211    -0.21000
C1085       C  0.17266530  0.57355426  0.70988088    -0.09000
C1086       C  0.20966143  0.60667107  0.69488293     0.29900
F1087       F  0.20929603  0.61796118  0.66967738    -0.19500
H1088       H  0.27567013  0.65388799  0.69349054     0.18200
H1089       H  0.14745044  0.53691034  0.74702669     0.18200
F1090       F  0.21547544  0.57334387  0.77046167    -0.19500
C1091       C  0.40240282  0.63113572  0.95961495    -0.21000
C1092       C  0.37059881  0.62378923  0.98696926    -0.09000
C1093       C  0.35810595  0.59545969  0.50670051     0.29900
C1094       C  0.38212465  0.57894094  0.99904140    -0.21000
C1095       C  0.41274072  0.58492017  0.97072246    -0.09000
C1096       C  0.42307060  0.61183604  0.95139782     0.29900
F1097       F  0.45301157  0.61935275  0.92427492    -0.19500
H1098       H  0.41036605  0.65088574  0.94381495     0.18200
H1099       H  0.36899118  0.55388548  0.51283319     0.18200
F1100       F  0.32746923  0.58769211  0.53332950    -0.19500
C1101       C  0.40995042  0.75888335  0.96047805    -0.21000
C1102       C  0.37268777  0.74413518  0.98348430    -0.09000
C1103       C  0.35607848  0.76919111  0.49990215     0.29900
C1104       C  0.37784703  0.80756407  0.98775955    -0.21000
C1105       C  0.41442025  0.82151810  0.96435753    -0.09000
C1106       C  0.43096386  0.79749334  0.95130278     0.29900
F1107       F  0.46624508  0.81033838  0.92844634    -0.19500
H1108       H  0.42211719  0.73983915  0.94862716     0.18200
H1109       H  0.36246810  0.82510371  0.50038849     0.18200
F1110       F  0.32067574  0.75619539  0.52264515    -0.19500
C1111       C  0.17061238  0.59549549  0.00062759    -0.21000
C1112       C  0.15592488  0.55902889  0.97581826    -0.09000
C1113       C  0.18028560  0.54304568  0.96041509     0.29900
C1114       C  0.22045888  0.56534799  0.96801612    -0.21000
C1115       C  0.23641904  0.60345520  0.99140335    -0.09000
C1116       C  0.21029238  0.61727087  0.00878207     0.29900
F1117       F  0.22508379  0.65535758  0.53062889    -0.19500
H1118       H  0.15194990  0.60800079  0.01275445     0.18200
H1119       H  0.24010130  0.55433950  0.95403740     0.18200
F1120       F  0.16682042  0.50813295  0.93596499    -0.19500
C1121       C  0.84667339  0.14277149  0.99450509     0.03500
C1122       C  0.80272996  0.11694786  0.99659703    -0.12700
C1123       C  0.78169186  0.13355950  0.99666975     0.01000
C1124       C  0.80524876  0.17625830  0.99461516    -0.11200
C1125       C  0.84896385  0.20283796  0.99367820     0.03500
C1126       C  0.86933856  0.18585045  0.99414171    -0.10600
H1127       H  0.78529021  0.08352930  0.99635427     0.09100
H1128       H  0.78973432  0.18801793  0.99135108     0.06600
H1129       H  0.90319985  0.20561815  0.99274389     0.06400
C1130       C  0.85184447  0.14789224  0.24561268     0.03500
C1131       C  0.87512998  0.19220524  0.24978010    -0.12700
C1132       C  0.85641740  0.21118016  0.24945210     0.01000
C1133       C  0.81379357  0.18516292  0.24605495    -0.11200
C1134       C  0.79024910  0.14101170  0.24194205     0.03500
C1135       C  0.80907448  0.12268068  0.24264541    -0.10600
H1136       H  0.90847508  0.21145318  0.25067625     0.09100
H1137       H  0.79964818  0.19877852  0.24350821     0.06600
H1138       H  0.79153588  0.08845349  0.23782461     0.06400
C1139       C  0.65166742  0.33722938  0.34650350     0.03500
C1140       C  0.69575386  0.36085543  0.34046613    -0.12700
C1141       C  0.71624550  0.34413815  0.34145368     0.01000
C1142       C  0.69177878  0.30290655  0.34755876    -0.11200
C1143       C  0.64767966  0.27856359  0.35257883     0.03500
C1144       C  0.62790757  0.29560578  0.35126213    -0.10600
H1145       H  0.71396864  0.39329185  0.33750039     0.09100
H1146       H  0.70693395  0.29051033  0.35042590     0.06600
H1147       H  0.59391917  0.27782584  0.35674746     0.06400
C1148       C  0.64717856  0.33377315  0.09570959     0.03500
C1149       C  0.69011690  0.35843715  0.09737993    -0.12700
C1150       C  0.70838244  0.33976936  0.09877763     0.01000
C1151       C  0.68341704  0.29602721  0.09756103    -0.11200
C1152       C  0.64036166  0.27097849  0.09568717     0.03500
C1153       C  0.62262187  0.29004730  0.09412271    -0.10600
H1154       H  0.70859665  0.39245698  0.09965581     0.09100
H1155       H  0.69694818  0.28204142  0.10055143     0.06600
H1156       H  0.58926802  0.27144940  0.09347942     0.06400
O1157       O  0.56550788  0.43140373  0.35843775    -0.74900
O1158       O  0.55671680  0.42864559  0.41154820    -0.53800
C1159       C  0.57016208  0.42175846  0.38070828     0.78800
O1160       O  0.57979914  0.11843906  0.40758847    -0.59500
O1161       O  0.52141683  0.08896422  0.38656845    -0.52600
C1162       C  0.55815450  0.12033604  0.39393346     0.70800
O1163       O  0.61902295  0.06815531  0.45252689    -0.74100
O1164       O  0.58717415  0.50283942  0.46334943    -0.54700
C1165       C  0.61853955  0.04205430  0.46239299     0.76800
O1166       O  0.52073334  0.47845231  0.31423579    -0.59200
O1167       O  0.99000927  0.01210793  0.33542580    -0.52400
C1168       C  0.00457755  0.49467199  0.31102836     0.73400
Zr1169     Zr  0.53194184  0.46294608  0.35703403     2.54700
O1170       O  0.60020868  0.49659637  0.32219861    -0.79800
O1171       O  0.00236362  0.39587361  0.31594501    -0.93200
Zr1172     Zr  0.57497238  0.06632688  0.42577296     2.64700
O1173       O  0.64090397  0.09294699  0.38758313    -0.98200
O1174       O  0.60572738  0.13184495  0.46642942    -0.80200
O1175       O  0.56557484  0.50087166  0.40437863    -0.83600
O1176       O  0.54252962  0.02856194  0.37801329    -2.18300
O1177       O  0.87848658  0.40721420  0.38333195    -0.67000
O1178       O  0.90807982  0.47310258  0.37590624    -0.51600
C1179       C  0.87885028  0.43325261  0.37344803     0.71800
O1180       O  0.97657746  0.00033349  0.02542380    -0.59900
O1181       O  0.50539629  0.46358683  0.50398131    -0.51900
C1182       C  0.98975322  0.48156546  0.02814578     0.73600
O1183       O  0.93273313  0.04887826  0.48067582    -0.71300
O1184       O  0.94156986  0.05150154  0.42748604    -0.50000
C1185       C  0.92929654  0.05958166  0.45842815     0.75000
O1186       O  0.90943952  0.36199345  0.44217385    -0.66600
O1187       O  0.97143186  0.38913179  0.45664818    -0.53800
C1188       C  0.93232377  0.36028975  0.45454674     0.73300
Zr1189     Zr  0.91978877  0.40927241  0.41348933     2.77500
O1190       O  0.84923501  0.37873347  0.44506947    -0.97400
O1191       O  0.89732529  0.34344562  0.37312573    -0.78200
Zr1192     Zr  0.96218039  0.01370374  0.48258180     2.70100
O1193       O  0.89565798  0.48033436  0.01615666    -0.79400
O1194       O  0.49294210  0.07971613  0.02397225    -0.98500
Zr1195     Zr  0.51933153  0.45947770  0.44550106     2.21500
Zr1196     Zr  0.97578673  0.01712866  0.39395215     2.11100
O1197       O  0.92954615  0.47567856  0.43541029    -2.47200
O1198       O  0.95218479  0.44712385  0.46131757    -0.79200
O1199       O  0.96431183  0.44934540  0.37157907    -0.71400
O1200       O  0.53057730  0.02673868  0.46786738    -2.32400
O1201       O  0.98624948  0.41998443  0.39765321    -2.28600
O1202       O  0.50852909  0.05562301  0.44201833    -0.73200
H1203       H  0.55911238  0.04540553  0.36115449     0.78800
H1204       H  0.54436505  0.04093628  0.48704662     0.79900
H1205       H  0.90283137  0.47177195  0.44023567     0.82100
H1206       H  0.98239704  0.39295888  0.39050378     0.79700
H1207       H  0.58126429  0.13019829  0.48208343     0.42800
H1208       H  0.50405097  0.10215191  0.01233761     0.41700
H1209       H  0.88165374  0.44988001  0.00594884     0.41400
H1210       H  0.84339099  0.39999611  0.44956828     0.39300
H1211       H  0.91138559  0.35246341  0.35167133     0.42500
H1212       H  0.00412166  0.37699211  0.32316067     0.37300
H1213       H  0.61851803  0.00478843  0.33368579     0.43400
H1214       H  0.63261122  0.08046058  0.36546091     0.39800
H1215       H  0.83045899  0.35485023  0.42918996     0.44700
H1216       H  0.52457945  0.40063020  0.29890460     0.43400
H1217       H  0.65376832  0.12347157  0.39056556     0.43600
H1218       H  0.97347829  0.07973878  0.03953627     0.43900
O1219       O  0.56153829  0.42747989  0.10792684    -0.74900
O1220       O  0.56094141  0.43299202  0.16139534    -0.53800
C1221       C  0.56939488  0.42115565  0.13033095     0.78800
O1222       O  0.58082718  0.11021592  0.13766964    -0.59500
O1223       O  0.51524857  0.08115271  0.12913931    -0.52600
C1224       C  0.55482259  0.11027942  0.12793167     0.70800
O1225       O  0.62993207  0.07101500  0.18464275    -0.74100
O1226       O  0.60102120  0.51615426  0.20810033    -0.54700
C1227       C  0.63125179  0.04954395  0.19872772     0.76800
O1228       O  0.51081162  0.46708127  0.06349291    -0.59200
O1229       O  0.98080856  0.00295613  0.08514586    -0.52400
C1230       C  0.98970468  0.48105693  0.06118194     0.73400
Zr1231     Zr  0.52816237  0.45894107  0.10679712     2.54700
O1232       O  0.59364878  0.49231127  0.06892992    -0.79800
O1233       O  0.97471219  0.37965800  0.07859634    -0.93200
Zr1234     Zr  0.57954824  0.06650783  0.16390526     2.64700
O1235       O  0.64078009  0.08665089  0.12082992    -0.98200
O1236       O  0.61661383  0.13723583  0.19762789    -0.80200
O1237       O  0.56952588  0.50355775  0.14969138    -0.83600
O1238       O  0.53646279  0.02113296  0.12259134    -2.18300
O1239       O  0.87141387  0.40531285  0.14701242    -0.67000
O1240       O  0.89873419  0.46812887  0.13476540    -0.51600
C1241       C  0.86951258  0.42896359  0.13601730     0.71800
O1242       O  0.98991786  0.01282190  0.27569157    -0.59900
O1243       O  0.52247783  0.48150804  0.25461590    -0.51900
C1244       C  0.00504813  0.49583941  0.27793614     0.73600
O1245       O  0.94375588  0.05874505  0.23197164    -0.71300
O1246       O  0.94301671  0.05197196  0.17853029    -0.50000
C1247       C  0.93469350  0.06398950  0.20957503     0.75000
O1248       O  0.91563957  0.37141245  0.20413756    -0.66600
O1249       O  0.98159445  0.39901485  0.21071796    -0.53800
C1250       C  0.94162159  0.37069825  0.21327458     0.73300
Zr1251     Zr  0.91896737  0.41385301  0.17491771     2.77500
O1252       O  0.85669553  0.39634301  0.21635591    -0.97400
O1253       O  0.88489137  0.34202945  0.14257235    -0.78200
Zr1254     Zr  0.97657869  0.02608298  0.23280119     2.70100
O1255       O  0.91541089  0.50511992  0.27587535    -0.79400
O1256       O  0.51732669  0.09957656  0.26789191    -0.98500
Zr1257     Zr  0.52974157  0.46996530  0.19581707     2.21500
Zr1258     Zr  0.97538264  0.01605675  0.14402022     2.11100
O1259       O  0.93252832  0.48199391  0.19155066    -2.47200
O1260       O  0.96136425  0.45893942  0.21687579    -0.79200
O1261       O  0.95510826  0.44424981  0.12740816    -0.71400
O1262       O  0.54370537  0.03739801  0.21219311    -2.32400
O1263       O  0.98336611  0.42039174  0.15346761    -2.28600
O1264       O  0.51581857  0.06107909  0.18656048    -0.73200
H1265       H  0.54989989  0.03393878  0.10350196     0.78800
H1266       H  0.56143019  0.05420009  0.22902089     0.79900
H1267       H  0.90620426  0.47923837  0.19880798     0.82100
H1268       H  0.97847632  0.39303174  0.14828174     0.79700
H1269       H  0.59980833  0.13386994  0.21986255     0.42800
H1270       H  0.49846099  0.09726865  0.28926692     0.41700
H1271       H  0.90195287  0.47453611  0.27342631     0.41400
H1272       H  0.83685961  0.36516951  0.21038203     0.39300
H1273       H  0.89522234  0.34576242  0.11946528     0.42500
H1274       H  0.98192142  0.36352147  0.08356781     0.37300
H1275       H  0.60097599  0.00407513  0.07096943     0.43400
H1276       H  0.63086929  0.08158973  0.10099261     0.39800
H1277       H  0.86532872  0.40118845  0.23680926     0.45300
H1278       H  0.51990104  0.39283525  0.05182163     0.43400
H1279       H  0.65989013  0.11787612  0.12702402     0.43600
H1280       H  0.99169833  0.09247874  0.28916456     0.43900
C1281       C  0.62890461  0.20113697  0.08364358    -0.21000
C1282       C  0.61373066  0.22634681  0.09949548    -0.09000
C1283       C  0.57580844  0.21026208  0.12191596     0.29900
C1284       C  0.55478865  0.17054292  0.12914873    -0.21000
C1285       C  0.57204847  0.14724029  0.11517690    -0.09000
C1286       C  0.60865700  0.16220328  0.09179234     0.29900
F1287       F  0.62556800  0.13979273  0.07771436    -0.19500
H1288       H  0.65766804  0.21255754  0.06605091     0.18200
H1289       H  0.52677058  0.15943637  0.14753848     0.18200
F1290       F  0.56103306  0.23425087  0.13910282    -0.19500
C1291       C  0.80430100  0.42269350  0.14112057    -0.21000
C1292       C  0.83066191  0.40937736  0.12413987    -0.09000
C1293       C  0.81826502  0.37532605  0.09722707     0.29900
C1294       C  0.77911447  0.35386638  0.08812174    -0.21000
C1295       C  0.75182358  0.36605324  0.10582679    -0.09000
C1296       C  0.76492396  0.40098120  0.13230066     0.29900
F1297       F  0.73859818  0.41229567  0.15103671    -0.19500
H1298       H  0.81342743  0.44866168  0.16217029     0.18200
H1299       H  0.76967215  0.32712991  0.06765859     0.18200
F1300       F  0.84396750  0.36276176  0.07996353    -0.19500
C1301       C  0.62923596  0.37245879  0.07981722    -0.21000
C1302       C  0.62631035  0.35473062  0.10321384    -0.09000
C1303       C  0.60470796  0.35855578  0.13497716     0.29900
C1304       C  0.58618328  0.37992999  0.14333276    -0.21000
C1305       C  0.58890257  0.39802872  0.12017482    -0.09000
C1306       C  0.61056111  0.39398203  0.08813768     0.29900
F1307       F  0.61491901  0.41188307  0.06524507    -0.19500
H1308       H  0.64628053  0.36995021  0.05531324     0.18200
H1309       H  0.56975396  0.38236856  0.16812422     0.18200
F1310       F  0.60246493  0.34240959  0.15816557    -0.19500
C1311       C  0.56571100  0.16305487  0.36012120    -0.21000
C1312       C  0.57797394  0.16139110  0.38537613    -0.09000
C1313       C  0.61130235  0.19914186  0.40101751     0.29900
C1314       C  0.63338808  0.23684678  0.39021359    -0.21000
C1315       C  0.62257050  0.23811621  0.36395844    -0.09000
C1316       C  0.58759150  0.20118135  0.34963447     0.29900
F1317       F  0.57543843  0.20164607  0.32487170    -0.19500
H1318       H  0.53999086  0.13461904  0.34781550     0.18200
H1319       H  0.65909443  0.26532449  0.40251903     0.18200
F1320       F  0.62269864  0.19981109  0.42684484    -0.19500
C1321       C  0.82569770  0.37668323  0.33685589    -0.21000
C1322       C  0.84218125  0.41560982  0.35909308    -0.09000
C1323       C  0.82048231  0.43457872  0.37032952     0.29900
C1324       C  0.78058456  0.41249976  0.36227723    -0.21000
C1325       C  0.76219629  0.37162566  0.34240368    -0.09000
C1326       C  0.78639475  0.35516220  0.32803426     0.29900
F1327       F  0.77117941  0.31728720  0.30676397    -0.19500
H1328       H  0.84262314  0.36217504  0.32729311     0.18200
H1329       H  0.76287035  0.42609690  0.37372372     0.18200
F1330       F  0.83592287  0.47248029  0.39160428    -0.19500
C1331       C  0.63678816  0.37972124  0.33194608    -0.21000
C1332       C  0.63058566  0.35831440  0.35412589    -0.09000
C1333       C  0.60502392  0.35825873  0.38469138     0.29900
C1334       C  0.58595604  0.37908202  0.39284852    -0.21000
C1335       C  0.59150344  0.40028076  0.37073790    -0.09000
C1336       C  0.61706527  0.40023203  0.33995402     0.29900
F1337       F  0.62353106  0.42034986  0.31780824    -0.19500
H1338       H  0.65663917  0.38024515  0.30836797     0.18200
H1339       H  0.56647132  0.37826913  0.41665899     0.18200
F1340       F  0.59920632  0.33882505  0.40712335    -0.19500
C1341       C  0.91742196  0.11428990  0.24968198    -0.21000
C1342       C  0.91300504  0.08515551  0.21970899    -0.09000
C1343       C  0.88875609  0.07751498  0.19866053     0.29900
C1344       C  0.86900287  0.09788548  0.20768760    -0.21000
C1345       C  0.87343059  0.12701320  0.23747367    -0.09000
C1346       C  0.89853880  0.13578722  0.25821900     0.29900
F1347       F  0.90464099  0.16487493  0.28666449    -0.19500
H1348       H  0.93639274  0.12124507  0.26608829     0.18200
H1349       H  0.85056621  0.09133292  0.19098592     0.18200
F1350       F  0.88382957  0.05017057  0.16926367    -0.19500
C1351       C  0.92018541  0.27165353  0.22333695    -0.21000
C1352       C  0.88234715  0.25607571  0.24566887    -0.09000
C1353       C  0.86686390  0.28134202  0.26000214     0.29900
C1354       C  0.88738861  0.31968881  0.25042184    -0.21000
C1355       C  0.92389657  0.33384039  0.22684188    -0.09000
C1356       C  0.94085178  0.31017354  0.21406369     0.29900
F1357       F  0.97538020  0.32244933  0.19048303    -0.19500
H1358       H  0.93239938  0.25267798  0.21125297     0.18200
H1359       H  0.87410027  0.33780868  0.26072472     0.18200
F1360       F  0.83101471  0.26825502  0.28225929    -0.19500
C1361       C  0.74757396  0.12286582  0.20287872    -0.21000
C1362       C  0.74941945  0.11438778  0.23008387    -0.09000
C1363       C  0.71267699  0.08135447  0.24517049     0.29900
C1364       C  0.67429608  0.05883204  0.23405773    -0.21000
C1365       C  0.67218950  0.06917018  0.20792696    -0.09000
C1366       C  0.70959923  0.10087371  0.19197130     0.29900
F1367       F  0.70963820  0.11131053  0.16603682    -0.19500
H1368       H  0.77577651  0.14727637  0.19024836     0.18200
H1369       H  0.64601952  0.03456758  0.24673975     0.18200
F1370       F  0.71351778  0.07222145  0.27144432    -0.19500
C1371       C  0.90040878  0.13047139  0.45906095    -0.21000
C1372       C  0.87023048  0.12453096  0.48747166    -0.09000
C1373       C  0.86010322  0.09803232  0.00765523     0.29900
C1374       C  0.88092698  0.07835151  0.49819274    -0.21000
C1375       C  0.90995033  0.08296274  0.46899316    -0.09000
C1376       C  0.91984696  0.10971008  0.44967427     0.29900
F1377       F  0.94816251  0.11573699  0.42156583    -0.19500
H1378       H  0.90785769  0.15012168  0.44339993     0.18200
H1379       H  0.87259489  0.05823677  0.01475181     0.18200
F1380       F  0.83105889  0.09214416  0.03526436    -0.19500
C1381       C  0.90892526  0.26012013  0.46339493    -0.21000
C1382       C  0.87180577  0.24537076  0.48651556    -0.09000
C1383       C  0.85780125  0.27137000  0.00145565     0.29900
C1384       C  0.87613138  0.30820135  0.49028340    -0.21000
C1385       C  0.91245077  0.32192667  0.46658561    -0.09000
C1386       C  0.92933274  0.29826192  0.45379715     0.29900
F1387       F  0.96431757  0.31093277  0.43064202    -0.19500
H1388       H  0.92132938  0.24129082  0.45160123     0.18200
H1389       H  0.86434254  0.32701649  0.00099382     0.18200
F1390       F  0.82337569  0.25964270  0.02513487    -0.19500
C1391       C  0.67050041  0.09617212  0.50015072    -0.21000
C1392       C  0.65584350  0.05939672  0.47563855    -0.09000
C1393       C  0.67970530  0.04271576  0.46147361     0.29900
C1394       C  0.71968736  0.06501399  0.46960315    -0.21000
C1395       C  0.73582618  0.10370211  0.49243897    -0.09000
C1396       C  0.70974185  0.11771714  0.50901901     0.29900
F1397       F  0.72461893  0.15664424  0.03383102    -0.19500
H1398       H  0.65203322  0.10896058  0.51168347     0.18200
H1399       H  0.73901764  0.05345729  0.45643649     0.18200
F1400       F  0.66595140  0.00698666  0.43778011    -0.19500
C1401       C  0.84672368  0.14295852  0.49431703     0.03500
C1402       C  0.80283778  0.11633575  0.49571283    -0.12700
C1403       C  0.78121498  0.13214431  0.49542667     0.01000
C1404       C  0.80413451  0.17490532  0.49369804    -0.11200
C1405       C  0.84780066  0.20215835  0.49308538     0.03500
C1406       C  0.86875714  0.18596624  0.49398042    -0.10600
H1407       H  0.78593056  0.08292626  0.49519846     0.09100
H1408       H  0.78822833  0.18620972  0.49036501     0.06600
H1409       H  0.90262246  0.20626213  0.49272504     0.06400
C1410       C  0.85040601  0.14864367  0.74829121     0.03500
C1411       C  0.87482663  0.19311460  0.75323034    -0.12700
C1412       C  0.85735403  0.21376104  0.75402904     0.01000
C1413       C  0.81461003  0.18916037  0.75130592    -0.11200
C1414       C  0.78999003  0.14477865  0.74617674     0.03500
C1415       C  0.80781267  0.12480123  0.74544245    -0.10600
H1416       H  0.90812174  0.21125596  0.75384104     0.09100
H1417       H  0.80122398  0.20414275  0.74993640     0.06600
H1418       H  0.78959038  0.09049130  0.73978330     0.06400
C1419       C  0.65242384  0.33745507  0.84665271     0.03500
C1420       C  0.69657200  0.36160589  0.84113416    -0.12700
C1421       C  0.71728860  0.34501850  0.84196581     0.01000
C1422       C  0.69295291  0.30376913  0.84788861    -0.11200
C1423       C  0.64900197  0.27913950  0.85242451     0.03500
C1424       C  0.62893334  0.29568183  0.85087003    -0.10600
H1425       H  0.71452163  0.39408638  0.83840542     0.09100
H1426       H  0.70799084  0.29142062  0.85102076     0.06600
H1427       H  0.59489048  0.27741008  0.85588246     0.06400
C1428       C  0.64964183  0.33524554  0.59421284     0.03500
C1429       C  0.69254933  0.35812319  0.59507783    -0.12700
C1430       C  0.70921426  0.33810219  0.59683255     0.01000
C1431       C  0.68263754  0.29429946  0.59582485    -0.11200
C1432       C  0.63975640  0.27079194  0.59403320     0.03500
C1433       C  0.62344589  0.29146209  0.59285484    -0.10600
H1434       H  0.71229580  0.39199987  0.59623295     0.09100
H1435       H  0.69463491  0.27892458  0.59897099     0.06600
H1436       H  0.59007287  0.27416552  0.59300296     0.06400
O1437       O  0.56598136  0.43100685  0.85900250    -0.74900
O1438       O  0.55581841  0.42689127  0.91193225    -0.53800
C1439       C  0.56975713  0.42052602  0.88118375     0.78800
O1440       O  0.58058155  0.11998492  0.90838344    -0.59500
O1441       O  0.52277987  0.09058912  0.88658917    -0.52600
C1442       C  0.55939601  0.12180938  0.89420586     0.70800
O1443       O  0.61996653  0.07033646  0.95355159    -0.74100
O1444       O  0.58937591  0.50375842  0.96223179    -0.54700
C1445       C  0.61885074  0.04453656  0.96441317     0.76800
O1446       O  0.52045938  0.47615371  0.81379852    -0.59200
O1447       O  0.98893935  0.01299619  0.83585364    -0.52400
C1448       C  0.00538505  0.49552653  0.81167178     0.73400
Zr1449     Zr  0.53197600  0.46162709  0.85694157     2.54700
O1450       O  0.59835229  0.49238674  0.81958167    -0.79800
O1451       O  0.99662437  0.39318239  0.81914721    -0.93200
Zr1452     Zr  0.57532093  0.06846643  0.92741982     2.64700
O1453       O  0.64273727  0.09903926  0.89119721    -0.98200
O1454       O  0.60044732  0.13241744  0.97002155    -0.80200
O1455       O  0.56702967  0.50060717  0.90358003    -0.83600
O1456       O  0.54411339  0.03156377  0.87899368    -2.18300
O1457       O  0.87889962  0.40733991  0.88402569    -0.67000
O1458       O  0.90885774  0.47325852  0.87640634    -0.51600
C1459       C  0.87954706  0.43341247  0.87393978     0.71800
O1460       O  0.97046754  0.99718517  0.52640877    -0.59900
O1461       O  0.50949970  0.46678814  0.00378705    -0.51900
C1462       C  0.98972701  0.48204806  0.52879346     0.73600
O1463       O  0.93375026  0.04973570  0.98228951    -0.71300
O1464       O  0.94343354  0.05347936  0.92927582    -0.50000
C1465       C  0.93055157  0.06085151  0.96018794     0.75000
O1466       O  0.91025741  0.36232684  0.94303091    -0.66600
O1467       O  0.97267809  0.38948107  0.95666361    -0.53800
C1468       C  0.93350453  0.36068083  0.95502773     0.73300
Zr1469     Zr  0.91982091  0.40936280  0.91441341     2.77500
O1470       O  0.84947740  0.37891293  0.94639502    -0.97400
O1471       O  0.89503990  0.34221873  0.87540559    -0.78200
Zr1472     Zr  0.96507494  0.01561465  0.98264207     2.70100
O1473       O  0.89565471  0.48098507  0.51775608    -0.79400
O1474       O  0.49422933  0.07939041  0.52378699    -0.98500
Zr1475     Zr  0.52080635  0.46021088  0.94534261     2.21500
Zr1476     Zr  0.97704196  0.01885311  0.89429872     2.11100
O1477       O  0.93000942  0.47615239  0.93578922    -2.47200
O1478       O  0.95275044  0.44779438  0.96185929    -0.79200
O1479       O  0.96423371  0.44931641  0.87230931    -0.71400
O1480       O  0.53060629  0.02793811  0.96886352    -2.32400
O1481       O  0.98603624  0.41950604  0.89789378    -2.28600
O1482       O  0.50850097  0.05671055  0.94257147    -0.73200
H1483       H  0.56090533  0.04873200  0.86235028     0.78800
H1484       H  0.54397999  0.04189960  0.98824757     0.79900
H1485       H  0.90339905  0.47249318  0.94070212     0.82100
H1486       H  0.98216190  0.39248135  0.89083716     0.79700
H1487       H  0.58522308  0.12210808  0.99093452     0.42800
H1488       H  0.50013071  0.10105733  0.51397273     0.41700
H1489       H  0.87486356  0.46743097  0.50314188     0.41400
H1490       H  0.84218691  0.39842896  0.94861754     0.39300
H1491       H  0.90807163  0.35018723  0.85356282     0.42500
H1492       H  0.99939424  0.37489151  0.82615482     0.37300
H1493       H  0.60973115  0.02731365  0.82460421     0.43400
H1494       H  0.63620692  0.09555660  0.87014575     0.39800
H1495       H  0.83097569  0.35294504  0.93138778     0.44700
H1496       H  0.52445592  0.39925704  0.79879689     0.43400
H1497       H  0.65828891  0.12989767  0.90014280     0.43600
H1498       H  0.96857902  0.07721518  0.53946960     0.43900
O1499       O  0.56191554  0.42755176  0.60771469    -0.74900
O1500       O  0.56202737  0.43310078  0.66094846    -0.53800
C1501       C  0.57122854  0.42227711  0.62982492     0.78800
O1502       O  0.58024010  0.11331518  0.64009546    -0.59500
O1503       O  0.51493861  0.08183904  0.62934922    -0.52600
C1504       C  0.55406526  0.11223777  0.62950452     0.70800
O1505       O  0.63009067  0.07477856  0.68700643    -0.74100
O1506       O  0.60030683  0.51407374  0.70644736    -0.54700
C1507       C  0.63223628  0.05333497  0.70043658     0.76800
O1508       O  0.50670815  0.46335596  0.56368788    -0.59200
O1509       O  0.97296273  0.99859309  0.58649320    -0.52400
C1510       C  0.99021937  0.48189046  0.56196727     0.73400
Zr1511     Zr  0.52453666  0.45496190  0.60672405     2.54700
O1512       O  0.58633216  0.48046341  0.56434443    -0.79800
O1513       O  0.98181120  0.38203754  0.57607085    -0.93200
Zr1514     Zr  0.57989696  0.06904559  0.66497377     2.64700
O1515       O  0.64243580  0.09205041  0.62301848    -0.98200
O1516       O  0.61488278  0.13877845  0.70046078    -0.80200
O1517       O  0.56707494  0.50059198  0.64887720    -0.83600
O1518       O  0.53826162  0.02375754  0.62262152    -2.18300
O1519       O  0.87316467  0.40140557  0.64457209    -0.67000
O1520       O  0.89865053  0.46420664  0.63351732    -0.51600
C1521       C  0.87040493  0.42463521  0.63380758     0.71800
O1522       O  0.98826530  0.01367491  0.77613560    -0.59900
O1523       O  0.52262669  0.47956005  0.75399158    -0.51900
C1524       C  0.00566500  0.49656522  0.77871345     0.73600
O1525       O  0.94238619  0.05929253  0.73161647    -0.71300
O1526       O  0.93918934  0.05034355  0.67840589    -0.50000
C1527       C  0.93232545  0.06367142  0.70937762     0.75000
O1528       O  0.91807331  0.37169517  0.70548608    -0.66600
O1529       O  0.98416932  0.40037080  0.71253965    -0.53800
C1530       C  0.94421761  0.37188859  0.71533621     0.73300
Zr1531     Zr  0.92020173  0.41198403  0.67460994     2.77500
O1532       O  0.85632765  0.39355909  0.71412613    -0.97400
O1533       O  0.88478767  0.33869877  0.64487834    -0.78200
Zr1534     Zr  0.97578166  0.02770922  0.73323681     2.70100
O1535       O  0.91379744  0.50332010  0.77626349    -0.79400
O1536       O  0.51743413  0.09913672  0.76618736    -0.98500
Zr1537     Zr  0.52838049  0.46771526  0.69536817     2.21500
Zr1538     Zr  0.96989782  0.01267367  0.64494717     2.11100
O1539       O  0.93156938  0.47925506  0.69203148    -2.47200
O1540       O  0.96202169  0.45784079  0.71692590    -0.79200
O1541       O  0.95619821  0.44327622  0.62750959    -0.71400
O1542       O  0.54357995  0.03827641  0.71238864    -2.32400
O1543       O  0.98573116  0.42079096  0.65346381    -2.28600
O1544       O  0.51488008  0.06117903  0.68644312    -0.73200
H1545       H  0.55173631  0.03691958  0.60371257     0.78800
H1546       H  0.56078236  0.05525430  0.72957584     0.79900
H1547       H  0.90484882  0.47569333  0.69910955     0.82100
H1548       H  0.98159581  0.39377715  0.64810252     0.79700
H1549       H  0.59355534  0.14505425  0.70902484     0.42800
H1550       H  0.49701788  0.09920028  0.78601346     0.41700
H1551       H  0.89056269  0.47681262  0.76510354     0.41400
H1552       H  0.83704444  0.36232799  0.70798708     0.39300
H1553       H  0.90762959  0.33657769  0.62983126     0.42500
H1554       H  0.99740464  0.38365107  0.55338075     0.37300
H1555       H  0.61049663  0.00018438  0.57786760     0.43400
H1556       H  0.63298428  0.08721030  0.60299930     0.39800
H1557       H  0.86395553  0.39868829  0.73517517     0.45300
H1558       H  0.46457863  0.37945495  0.56805260     0.43400
H1559       H  0.66067660  0.12326510  0.62989249     0.43600
H1560       H  0.03949861  0.10016911  0.77092478     0.43900
C1561       C  0.62483952  0.19934637  0.58147722    -0.21000
C1562       C  0.61192677  0.22635330  0.59838919    -0.09000
C1563       C  0.57622370  0.21276465  0.62303118     0.29900
C1564       C  0.55550750  0.17387946  0.63168256    -0.21000
C1565       C  0.57074876  0.14880472  0.61647184    -0.09000
C1566       C  0.60476991  0.16109159  0.59072347     0.29900
F1567       F  0.61946830  0.13676087  0.57539761    -0.19500
H1568       H  0.65202020  0.20904567  0.56230543     0.18200
H1569       H  0.52939937  0.16471337  0.65176681     0.18200
F1570       F  0.56373397  0.23858384  0.64082748    -0.19500
C1571       C  0.80836857  0.42211381  0.63558422    -0.21000
C1572       C  0.83138688  0.40459188  0.62181617    -0.09000
C1573       C  0.81577558  0.36704115  0.59798549     0.29900
C1574       C  0.77691885  0.34666596  0.58882585    -0.21000
C1575       C  0.75272232  0.36304079  0.60363669    -0.09000
C1576       C  0.76916917  0.40143746  0.62694684     0.29900
F1577       F  0.74653182  0.41783618  0.64292999    -0.19500
H1578       H  0.81995828  0.45092744  0.65419411     0.18200
H1579       H  0.76537715  0.31759990  0.57049871     0.18200
F1580       F  0.83816780  0.35020528  0.58350062    -0.19500
C1581       C  0.61551931  0.35831366  0.57827590    -0.21000
C1582       C  0.63105131  0.35851158  0.60208379    -0.09000
C1583       C  0.62862722  0.38095558  0.63421410     0.29900
C1584       C  0.61019882  0.40243994  0.64262381    -0.21000
C1585       C  0.59363600  0.40188038  0.61918632    -0.09000
C1586       C  0.59736429  0.38032204  0.58655861     0.29900
F1587       F  0.58302331  0.37984944  0.56278445    -0.19500
H1588       H  0.61754757  0.34120556  0.55335268     0.18200
H1589       H  0.60843303  0.41907509  0.66777469     0.18200
F1590       F  0.64306211  0.38102292  0.65773106    -0.19500
C1591       C  0.56802931  0.16386200  0.85943495    -0.21000
C1592       C  0.57970899  0.16257573  0.88525074    -0.09000
C1593       C  0.61315910  0.20024347  0.90082076     0.29900
C1594       C  0.63492620  0.23790496  0.89017886    -0.21000
C1595       C  0.62430973  0.23887076  0.86365420    -0.09000
C1596       C  0.59028869  0.20171190  0.84857044     0.29900
F1597       F  0.57980756  0.20166347  0.82250686    -0.19500
H1598       H  0.54271320  0.13527706  0.84682958     0.18200
H1599       H  0.66042671  0.26648814  0.90262645     0.18200
F1600       F  0.62523959  0.20081802  0.92618882    -0.19500
C1601       C  0.82563798  0.37578274  0.83832325    -0.21000
C1602       C  0.84318192  0.41573784  0.85917034    -0.09000
C1603       C  0.82291454  0.43596357  0.86852463     0.29900
C1604       C  0.78295346  0.41401566  0.86062784    -0.21000
C1605       C  0.76334827  0.37215912  0.84243695    -0.09000
C1606       C  0.78655450  0.35453743  0.82932364     0.29900
F1607       F  0.77052553  0.31578690  0.80921593    -0.19500
H1608       H  0.84158132  0.36033557  0.82996370     0.18200
H1609       H  0.76624830  0.42871978  0.87094362     0.18200
F1610       F  0.83983475  0.47523558  0.88786901    -0.19500
C1611       C  0.63763449  0.38024129  0.83258580    -0.21000
C1612       C  0.63079152  0.35791470  0.85427958    -0.09000
C1613       C  0.60427737  0.35658208  0.88451705     0.29900
C1614       C  0.58452867  0.37669982  0.89267296    -0.21000
C1615       C  0.59096438  0.39902368  0.87110446    -0.09000
C1616       C  0.61788037  0.40071753  0.84085157     0.29900
F1617       F  0.62618876  0.42313327  0.81976091    -0.19500
H1618       H  0.65841278  0.38195091  0.80936976     0.18200
H1619       H  0.56421586  0.37486732  0.91616385     0.18200
F1620       F  0.59849691  0.33692847  0.90675815    -0.19500
C1621       C  0.91522076  0.11344721  0.75033185    -0.21000
C1622       C  0.91098150  0.08516183  0.71990138    -0.09000
C1623       C  0.88621761  0.07775750  0.69945435     0.29900
C1624       C  0.86634706  0.09813385  0.70932504    -0.21000
C1625       C  0.87087612  0.12662152  0.73950351    -0.09000
C1626       C  0.89563598  0.13433979  0.75997672     0.29900
F1627       F  0.90036019  0.16152977  0.78940040    -0.19500
H1628       H  0.93415274  0.11982201  0.76648264     0.18200
H1629       H  0.84775871  0.09209895  0.69302014     0.18200
F1630       F  0.88062742  0.05043210  0.67001117    -0.19500
C1631       C  0.92211448  0.27354914  0.72768564    -0.21000
C1632       C  0.88458833  0.25889455  0.75039938    -0.09000
C1633       C  0.87031962  0.28519882  0.76489055     0.29900
C1634       C  0.89094357  0.32304194  0.75442197    -0.21000
C1635       C  0.92671651  0.33592170  0.73008135    -0.09000
C1636       C  0.94308266  0.31172237  0.71771324     0.29900
F1637       F  0.97709559  0.32292629  0.69368903    -0.19500
H1638       H  0.93365970  0.25397855  0.71565215     0.18200
H1639       H  0.87826066  0.34171456  0.76461871     0.18200
F1640       F  0.83542910  0.27347851  0.78810989    -0.19500
C1641       C  0.74725146  0.13122972  0.70933848    -0.21000
C1642       C  0.74914282  0.11971395  0.73465427    -0.09000
C1643       C  0.71269550  0.08439163  0.74757276     0.29900
C1644       C  0.67489746  0.06167575  0.73553821    -0.21000
C1645       C  0.67283905  0.07433206  0.71091377    -0.09000
C1646       C  0.70970512  0.10937525  0.69784597     0.29900
F1647       F  0.70971980  0.12308569  0.67406820    -0.19500
H1648       H  0.77513905  0.15761229  0.69839275     0.18200
H1649       H  0.64694667  0.03518732  0.74631719     0.18200
F1650       F  0.71318101  0.07295340  0.77261030    -0.19500
C1651       C  0.90042660  0.13016283  0.95967308    -0.21000
C1652       C  0.86960819  0.12374603  0.98766461    -0.09000
C1653       C  0.86088909  0.09866524  0.50724612     0.29900
C1654       C  0.88075375  0.07840761  0.99927000    -0.21000
C1655       C  0.91070286  0.08376741  0.97058199    -0.09000
C1656       C  0.92075903  0.11045908  0.95112692     0.29900
F1657       F  0.95041693  0.11774356  0.92380590    -0.19500
H1658       H  0.90812579  0.14981580  0.94389781     0.18200
H1659       H  0.87288114  0.05809668  0.51354873     0.18200
F1660       F  0.83233341  0.09297006  0.53515334    -0.19500
C1661       C  0.91111487  0.26145395  0.96495402    -0.21000
C1662       C  0.87346514  0.24629633  0.98750319    -0.09000
C1663       C  0.85624715  0.27054634  0.50065472     0.29900
C1664       C  0.87748542  0.30876919  0.99083960    -0.21000
C1665       C  0.91400715  0.32263830  0.96737777    -0.09000
C1666       C  0.93163765  0.29967129  0.95544146     0.29900
F1667       F  0.96754384  0.31310279  0.93323873    -0.19500
H1668       H  0.92389359  0.24294408  0.95350155     0.18200
H1669       H  0.86328902  0.32672628  0.50078099     0.18200
F1670       F  0.82183698  0.25875395  0.52434982    -0.19500
C1671       C  0.67138194  0.09917663  0.00180706    -0.21000
C1672       C  0.65608896  0.06187028  0.97778404    -0.09000
C1673       C  0.67944504  0.04463051  0.96393200     0.29900
C1674       C  0.71952946  0.06680541  0.97169713    -0.21000
C1675       C  0.73625985  0.10582073  0.99407006    -0.09000
C1676       C  0.71073770  0.12056714  0.01046898     0.29900
F1677       F  0.72300093  0.15333101  0.53281358    -0.19500
H1678       H  0.65333948  0.11245263  0.01307787     0.18200
H1679       H  0.73844261  0.05475264  0.95860776     0.18200
F1680       F  0.66506978  0.00830697  0.94086387    -0.19500
C1681       C  0.84789006  0.64271431  0.99263453     0.03500
C1682       C  0.80399303  0.61684807  0.99477449    -0.12700
C1683       C  0.78293724  0.63324918  0.99459753     0.01000
C1684       C  0.80627478  0.67586196  0.99237542    -0.11200
C1685       C  0.85009984  0.70243132  0.99089041     0.03500
C1686       C  0.87058196  0.68563731  0.99154092    -0.10600
H1687       H  0.78653226  0.58345045  0.99465648     0.09100
H1688       H  0.79048248  0.68748821  0.98936493     0.06600
H1689       H  0.90450014  0.70544133  0.98975000     0.06400
C1690       C  0.85311277  0.65054730  0.24744372     0.03500
C1691       C  0.87676036  0.69481865  0.25174595    -0.12700
C1692       C  0.85847760  0.71421548  0.25158842     0.01000
C1693       C  0.81570502  0.68865370  0.24869047    -0.11200
C1694       C  0.79171109  0.64447170  0.24467586     0.03500
C1695       C  0.81031880  0.62566962  0.24476617    -0.10600
H1696       H  0.91012487  0.71367756  0.25243177     0.09100
H1697       H  0.80174699  0.70256818  0.24636341     0.06600
H1698       H  0.79256351  0.59140809  0.23977874     0.06400
C1699       C  0.65238694  0.83728105  0.34672417     0.03500
C1700       C  0.69651622  0.86103180  0.33993115    -0.12700
C1701       C  0.71758662  0.84439341  0.33991383     0.01000
C1702       C  0.69358557  0.80319741  0.34589941    -0.11200
C1703       C  0.64958964  0.77879383  0.35165409     0.03500
C1704       C  0.62918247  0.79561589  0.35124325    -0.10600
H1705       H  0.71433293  0.89338149  0.33693823     0.09100
H1706       H  0.70900357  0.79078604  0.34823032     0.06600
H1707       H  0.59519296  0.77750018  0.35706653     0.06400
C1708       C  0.65160731  0.83788543  0.09609579     0.03500
C1709       C  0.69429188  0.86172619  0.09843056    -0.12700
C1710       C  0.71152135  0.84232437  0.10031086     0.01000
C1711       C  0.68562137  0.79849197  0.09905235    -0.11200
C1712       C  0.64298009  0.77402692  0.09589445     0.03500
C1713       C  0.62642544  0.79391551  0.09358476    -0.10600
H1714       H  0.71347521  0.89572611  0.10032308     0.09100
H1715       H  0.69813361  0.78382277  0.10257597     0.06600
H1716       H  0.59337026  0.77581921  0.09213536     0.06400
O1717       O  0.56484842  0.93042368  0.35924856    -0.74900
O1718       O  0.55454652  0.92615420  0.41218532    -0.53800
C1719       C  0.56878020  0.92003245  0.38145156     0.78800
O1720       O  0.58165842  0.61936799  0.40788980    -0.59500
O1721       O  0.52338867  0.59069833  0.38714769    -0.52600
C1722       C  0.56036036  0.62162660  0.39420996     0.70800
O1723       O  0.61829763  0.56847982  0.45440525    -0.74100
O1724       O  0.58834434  0.00260481  0.46136409    -0.54700
C1725       C  0.61740100  0.54230770  0.46452323     0.76800
O1726       O  0.52054803  0.97712230  0.31401776    -0.59200
O1727       O  0.98811636  0.51112962  0.33540239    -0.52400
C1728       C  0.00546932  0.99452112  0.31118862     0.73400
Zr1729     Zr  0.53042402  0.96085775  0.35712942     2.54700
O1730       O  0.59698208  0.99201945  0.32002006    -0.79800
O1731       O  0.00422300  0.89624291  0.31668102    -0.93200
Zr1732     Zr  0.57523867  0.56711391  0.42695346     2.64700
O1733       O  0.64271630  0.59461235  0.39080940    -0.98200
O1734       O  0.60465211  0.63354950  0.46679969    -0.80200
O1735       O  0.56518814  0.99993033  0.40388170    -0.83600
O1736       O  0.54387729  0.53050713  0.37863627    -2.18300
O1737       O  0.87884670  0.90691182  0.38202638    -0.67000
O1738       O  0.90919903  0.97285404  0.37412634    -0.51600
C1739       C  0.87992474  0.93297083  0.37147975     0.71800
O1740       O  0.97388046  0.49906167  0.02578065    -0.59900
O1741       O  0.50751564  0.96616087  0.50421264    -0.51900
C1742       C  0.99387246  0.98409041  0.02760330     0.73600
O1743       O  0.93208833  0.54767612  0.48138165    -0.71300
O1744       O  0.94094214  0.55030729  0.42818941    -0.50000
C1745       C  0.92836302  0.55805226  0.45910484     0.75000
O1746       O  0.90890450  0.86105571  0.44148339    -0.66600
O1747       O  0.97075390  0.88866277  0.45652263    -0.53800
C1748       C  0.93183530  0.85943245  0.45392389     0.73300
Zr1749     Zr  0.91894905  0.90899240  0.41348373     2.77500
O1750       O  0.84814501  0.87908330  0.44464720    -0.97400
O1751       O  0.89888243  0.84429638  0.37209031    -0.78200
Zr1752     Zr  0.96365885  0.51432510  0.48259252     2.70100
O1753       O  0.89710077  0.98140070  0.01776316    -0.79400
O1754       O  0.49345029  0.57940256  0.02519814    -0.98500
Zr1755     Zr  0.51933360  0.95947655  0.44558064     2.21500
Zr1756     Zr  0.97568279  0.51671851  0.39391753     2.11100
O1757       O  0.92869177  0.97552112  0.43512903    -2.47200
O1758       O  0.95096668  0.94669727  0.46147965    -0.79200
O1759       O  0.96418919  0.94967529  0.37203147    -0.71400
O1760       O  0.53034190  0.52664323  0.46844007    -2.32400
O1761       O  0.98547001  0.92005434  0.39837487    -2.28600
O1762       O  0.50883879  0.55647422  0.44301795    -0.73200
H1763       H  0.56067371  0.54766353  0.36198150     0.78800
H1764       H  0.54377925  0.54053309  0.48778266     0.79900
H1765       H  0.90195780  0.97157788  0.43978496     0.82100
H1766       H  0.98172835  0.89310300  0.39133374     0.79700
H1767       H  0.58861330  0.62526922  0.48832264     0.42800
H1768       H  0.50798187  0.60281245  0.01352081     0.41700
H1769       H  0.88488363  0.95074525  0.01040800     0.41400
H1770       H  0.83323171  0.84803564  0.43696361     0.39300
H1771       H  0.86871698  0.82366277  0.37954464     0.42500
H1772       H  0.98727534  0.87348323  0.32948922     0.37300
H1773       H  0.60452305  0.52114770  0.31801348     0.43400
H1774       H  0.63636537  0.58907364  0.36904576     0.39800
H1775       H  0.85162099  0.88431544  0.46743305     0.44700
H1776       H  0.52140325  0.89833082  0.29890147     0.43400
H1777       H  0.65853998  0.62575705  0.39816795     0.43600
H1778       H  0.96752289  0.57827550  0.03870149     0.43900
O1779       O  0.55734898  0.92376087  0.10847548    -0.74900
O1780       O  0.56037186  0.93244664  0.16166632    -0.53800
C1781       C  0.56797769  0.91989550  0.13063687     0.78800
O1782       O  0.58231575  0.61592382  0.14236600    -0.59500
O1783       O  0.51796760  0.58407158  0.12955268    -0.52600
C1784       C  0.55686093  0.61475326  0.13070358     0.70800
O1785       O  0.63068639  0.57473748  0.18834823    -0.74100
O1786       O  0.59957125  0.01320752  0.20572728    -0.54700
C1787       C  0.63225614  0.55313618  0.20210361     0.76800
O1788       O  0.50548596  0.96392419  0.06443402    -0.59200
O1789       O  0.97443325  0.49873640  0.08557890    -0.52400
C1790       C  0.99562842  0.98496859  0.06060122     0.73400
Zr1791     Zr  0.52057149  0.95201820  0.10719381     2.54700
O1792       O  0.58140432  0.97306007  0.06385274    -0.79800
O1793       O  0.99651364  0.89109722  0.06844796    -0.93200
Zr1794     Zr  0.58091900  0.57082360  0.16715451     2.64700
O1795       O  0.64498997  0.59732261  0.12684177    -0.98200
O1796       O  0.61243217  0.63897602  0.20499083    -0.80200
O1797       O  0.56504249  0.99800766  0.14791006    -0.83600
O1798       O  0.54129473  0.52676662  0.12348126    -2.18300
O1799       O  0.87692563  0.90686201  0.14402494    -0.67000
O1800       O  0.90417838  0.96996404  0.13235919    -0.51600
C1801       C  0.87500718  0.93069227  0.13329508     0.71800
O1802       O  0.98874195  0.51298580  0.27557585    -0.59900
O1803       O  0.52088293  0.97871967  0.25415754    -0.51900
C1804       C  0.00602310  0.99551362  0.27806683     0.73600
O1805       O  0.94400844  0.56055025  0.23202195    -0.71300
O1806       O  0.94162880  0.55241281  0.17872969    -0.50000
C1807       C  0.93464970  0.56559768  0.20974157     0.75000
O1808       O  0.91976750  0.87208098  0.20148384    -0.66600
O1809       O  0.98494292  0.90051725  0.21046960    -0.53800
C1810       C  0.94514147  0.87178237  0.21192832     0.73300
Zr1811     Zr  0.92457742  0.91442486  0.17103270     2.77500
O1812       O  0.85660932  0.88760758  0.20630253    -0.97400
O1813       O  0.90085343  0.84663832  0.13325056    -0.78200
Zr1814     Zr  0.97647451  0.52768560  0.23282315     2.70100
O1815       O  0.91109359  0.99648764  0.27123097    -0.79400
O1816       O  0.51464259  0.59749939  0.26691826    -0.98500
Zr1817     Zr  0.52733857  0.96764301  0.19560421     2.21500
Zr1818     Zr  0.97081028  0.51349282  0.14429005     2.11100
O1819       O  0.93579393  0.98154534  0.18958059    -2.47200
O1820       O  0.96353519  0.95809524  0.21522632    -0.79200
O1821       O  0.96255061  0.94802712  0.12520689    -0.71400
O1822       O  0.54309782  0.53836754  0.21370481    -2.32400
O1823       O  0.99025747  0.92396960  0.15113963    -2.28600
O1824       O  0.51520607  0.56152733  0.18729501    -0.73200
H1825       H  0.55531862  0.54053667  0.10487656     0.78800
H1826       H  0.55955069  0.55484969  0.23134921     0.79900
H1827       H  0.90897229  0.97774233  0.19625034     0.82100
H1828       H  0.98593305  0.89682337  0.14531912     0.79700
H1829       H  0.60645923  0.63209387  0.22641014     0.42800
H1830       H  0.52070612  0.61683922  0.25433910     0.41700
H1831       H  0.90239533  0.96782279  0.27051544     0.41400
H1832       H  0.84096330  0.85639420  0.19965259     0.39300
H1833       H  0.91247683  0.85387610  0.11116875     0.42500
H1834       H  0.01694424  0.89605930  0.04781718     0.37300
H1835       H  0.61360216  0.51899654  0.08257833     0.43400
H1836       H  0.63767815  0.59835041  0.10816289     0.39800
H1837       H  0.86263292  0.89423117  0.22846035     0.45300
H1838       H  0.45270908  0.87417273  0.07698207     0.43400
H1839       H  0.66435631  0.62740163  0.13683686     0.43600
H1840       H  0.99858899  0.59695333  0.28741409     0.43900
C1841       C  0.63034634  0.70367980  0.08430648    -0.21000
C1842       C  0.61545549  0.72919925  0.09951423    -0.09000
C1843       C  0.57735534  0.71351122  0.12175245     0.29900
C1844       C  0.55677789  0.67466162  0.13044069    -0.21000
C1845       C  0.57413478  0.65143569  0.11744949    -0.09000
C1846       C  0.61009017  0.66526676  0.09338058     0.29900
F1847       F  0.62620680  0.64211844  0.07932836    -0.19500
H1848       H  0.65897585  0.71456496  0.06656563     0.18200
H1849       H  0.52880759  0.66404095  0.14887714     0.18200
F1850       F  0.56186808  0.73710807  0.13727246    -0.19500
C1851       C  0.81128023  0.92691794  0.13822511    -0.21000
C1852       C  0.83582071  0.91131642  0.12199118    -0.09000
C1853       C  0.82091053  0.87502642  0.09696036     0.29900
C1854       C  0.78093268  0.85344694  0.08936546    -0.21000
C1855       C  0.75534749  0.86786674  0.10651646    -0.09000
C1856       C  0.77121546  0.90533301  0.13075973     0.29900
F1857       F  0.74722325  0.91978495  0.14861222    -0.19500
H1858       H  0.82239842  0.95475419  0.15775777     0.18200
H1859       H  0.76972110  0.82513957  0.07027443     0.18200
F1860       F  0.84509346  0.86059371  0.07986800    -0.19500
C1861       C  0.61096192  0.85423386  0.08065916    -0.21000
C1862       C  0.63164421  0.85983297  0.10347335    -0.09000
C1863       C  0.63128195  0.88482914  0.13479006     0.29900
C1864       C  0.61120458  0.90467611  0.14300838    -0.21000
C1865       C  0.59053106  0.89963881  0.12031554    -0.09000
C1866       C  0.59062908  0.87413381  0.08888654     0.29900
F1867       F  0.57008124  0.86729130  0.06650854    -0.19500
H1868       H  0.61036867  0.83426799  0.05663175     0.18200
H1869       H  0.61152617  0.92370604  0.16745356     0.18200
F1870       F  0.64902016  0.88864702  0.15790252    -0.19500
C1871       C  0.56791383  0.66390699  0.36022882    -0.21000
C1872       C  0.58088711  0.66244394  0.38509414    -0.09000
C1873       C  0.61562193  0.69989393  0.39948624     0.29900
C1874       C  0.63745360  0.73736848  0.38846013    -0.21000
C1875       C  0.62539227  0.73849518  0.36290122    -0.09000
C1876       C  0.59005943  0.70157150  0.34909144     0.29900
F1877       F  0.57795808  0.70153370  0.32403889    -0.19500
H1878       H  0.54150003  0.63556098  0.34858416     0.18200
H1879       H  0.66392852  0.76575094  0.40003365     0.18200
F1880       F  0.62873612  0.70049999  0.42420007    -0.19500
C1881       C  0.82642869  0.87560641  0.33528161    -0.21000
C1882       C  0.84385223  0.91542450  0.35633557    -0.09000
C1883       C  0.82337725  0.93548106  0.36596184     0.29900
C1884       C  0.78335959  0.91348401  0.35817668    -0.21000
C1885       C  0.76381272  0.87169944  0.33984690    -0.09000
C1886       C  0.78722145  0.85428440  0.32640537     0.29900
F1887       F  0.77120974  0.81558044  0.30623080    -0.19500
H1888       H  0.84247164  0.86025053  0.32677948     0.18200
H1889       H  0.76651088  0.92803303  0.36882226     0.18200
F1890       F  0.84004115  0.97452436  0.38565816    -0.19500
C1891       C  0.63835812  0.88131213  0.33337689    -0.21000
C1892       C  0.63076781  0.85797298  0.35459722    -0.09000
C1893       C  0.60351370  0.85588128  0.38453501     0.29900
C1894       C  0.58365450  0.87597033  0.39271614    -0.21000
C1895       C  0.59051856  0.89892148  0.37145359    -0.09000
C1896       C  0.61834117  0.90157072  0.34159936     0.29900
F1897       F  0.62705230  0.92446821  0.32074517    -0.19500
H1898       H  0.65974818  0.88377643  0.31042964     0.18200
H1899       H  0.56276069  0.87347957  0.41595073     0.18200
F1900       F  0.59707282  0.83550648  0.40650492    -0.19500
C1901       C  0.91887906  0.61680027  0.25011074    -0.21000
C1902       C  0.91390945  0.58763282  0.22007959    -0.09000
C1903       C  0.88925601  0.58006011  0.19946306     0.29900
C1904       C  0.86984865  0.60074886  0.20884015    -0.21000
C1905       C  0.87450897  0.62956270  0.23878929    -0.09000
C1906       C  0.89980482  0.63815340  0.25921817     0.29900
F1907       F  0.90563101  0.66672489  0.28796857    -0.19500
H1908       H  0.93802826  0.62354314  0.26625157     0.18200
H1909       H  0.85117608  0.59439206  0.19244424     0.18200
F1910       F  0.88308188  0.55200845  0.17038286    -0.19500
C1911       C  0.92285816  0.77362329  0.22481376    -0.21000
C1912       C  0.88500882  0.75886035  0.24715496    -0.09000
C1913       C  0.86994919  0.78448499  0.26061466     0.29900
C1914       C  0.89053594  0.82205852  0.24984604    -0.21000
C1915       C  0.92691020  0.83526616  0.22615235    -0.09000
C1916       C  0.94366468  0.81144296  0.21441534     0.29900
F1917       F  0.97801034  0.82268724  0.19070477    -0.19500
H1918       H  0.93488330  0.75442522  0.21343482     0.18200
H1919       H  0.87751244  0.84040875  0.25944169     0.18200
F1920       F  0.83449118  0.77248827  0.28323207    -0.19500
C1921       C  0.74848585  0.62693645  0.20645751    -0.21000
C1922       C  0.75061026  0.61827396  0.23339484    -0.09000
C1923       C  0.71392279  0.58546886  0.24873927     0.29900
C1924       C  0.67537035  0.56299650  0.23785989    -0.21000
C1925       C  0.67310405  0.57326604  0.21174964    -0.09000
C1926       C  0.71038452  0.60516382  0.19588775     0.29900
F1927       F  0.71021775  0.61589169  0.17023783    -0.19500
H1928       H  0.77660113  0.65128256  0.19371908     0.18200
H1929       H  0.64715518  0.53873810  0.25058701     0.18200
F1930       F  0.71506901  0.57647507  0.27495709    -0.19500
C1931       C  0.90035350  0.62941803  0.45966144    -0.21000
C1932       C  0.86829315  0.62177398  0.48687063    -0.09000
C1933       C  0.86002807  0.59667555  0.00546687     0.29900
C1934       C  0.87718312  0.57393107  0.49725677    -0.21000
C1935       C  0.90847303  0.58080191  0.46942633    -0.09000
C1936       C  0.92021265  0.60920239  0.45093731     0.29900
F1937       F  0.95119693  0.61776545  0.42448317    -0.19500
H1938       H  0.90936963  0.65037608  0.44453369     0.18200
H1939       H  0.87126208  0.55550155  0.01180701     0.18200
F1940       F  0.83051523  0.59015385  0.03281734    -0.19500
C1941       C  0.90915397  0.75943356  0.46294803    -0.21000
C1942       C  0.87191663  0.74449377  0.48596912    -0.09000
C1943       C  0.85934220  0.77118002  0.99882696     0.29900
C1944       C  0.87590740  0.80710914  0.48951306    -0.21000
C1945       C  0.91217727  0.82092891  0.46579642    -0.09000
C1946       C  0.92936808  0.79751158  0.45322161     0.29900
F1947       F  0.96442979  0.81030017  0.43014298    -0.19500
H1948       H  0.92174788  0.74076956  0.45126514     0.18200
H1949       H  0.86612327  0.82723271  0.99910215     0.18200
F1950       F  0.82579749  0.75999502  0.02329758    -0.19500
C1951       C  0.66914383  0.59553502  0.50269978    -0.21000
C1952       C  0.65467037  0.55939297  0.47756538    -0.09000
C1953       C  0.67927801  0.54373279  0.46183654     0.29900
C1954       C  0.71936688  0.56593542  0.46951393    -0.21000
C1955       C  0.73518110  0.60379487  0.49316309    -0.09000
C1956       C  0.70887849  0.61733290  0.51083132     0.29900
F1957       F  0.72500860  0.65438804  0.03312215    -0.19500
H1958       H  0.65027670  0.60777440  0.51510798     0.18200
H1959       H  0.73910786  0.55510052  0.45532576     0.18200
F1960       F  0.66619722  0.50933034  0.43694193    -0.19500
C1961       C  0.84555908  0.64107371  0.49352086     0.03500
C1962       C  0.80163287  0.61526232  0.49564120    -0.12700
C1963       C  0.78052683  0.63179100  0.49579777     0.01000
C1964       C  0.80384410  0.67443014  0.49372393    -0.11200
C1965       C  0.84764449  0.70108832  0.49241648     0.03500
C1966       C  0.86817979  0.68416606  0.49285001    -0.10600
H1967       H  0.78414383  0.58180320  0.49529532     0.09100
H1968       H  0.78799647  0.68599097  0.49070952     0.06600
H1969       H  0.90206911  0.70401593  0.49125469     0.06400
C1970       C  0.85128968  0.64883811  0.74699983     0.03500
C1971       C  0.87541087  0.69324486  0.75137708    -0.12700
C1972       C  0.85753110  0.71326955  0.75161460     0.01000
C1973       C  0.81494229  0.68820310  0.74829824    -0.11200
C1974       C  0.79057305  0.64397121  0.74395022     0.03500
C1975       C  0.80855631  0.62459845  0.74422629    -0.10600
H1976       H  0.90873180  0.71181882  0.75209022     0.09100
H1977       H  0.80142317  0.70270495  0.74622720     0.06600
H1978       H  0.79026153  0.59030660  0.73941969     0.06400
C1979       C  0.65307964  0.83924436  0.84779730     0.03500
C1980       C  0.69719810  0.86304966  0.84136499    -0.12700
C1981       C  0.71817547  0.84633497  0.84134743     0.01000
C1982       C  0.69414523  0.80483220  0.84666357    -0.11200
C1983       C  0.65009294  0.78034461  0.85228542     0.03500
C1984       C  0.62977246  0.79744216  0.85215372    -0.10600
H1985       H  0.71510466  0.89555828  0.83871228     0.09100
H1986       H  0.70960322  0.79227612  0.84865801     0.06600
H1987       H  0.59578746  0.77935562  0.85788765     0.06400
C1988       C  0.64750223  0.83387013  0.59531965     0.03500
C1989       C  0.69070613  0.85833447  0.59617651    -0.12700
C1990       C  0.70897855  0.83971079  0.59775834     0.01000
C1991       C  0.68382860  0.79604807  0.59710495    -0.11200
C1992       C  0.64071394  0.77102937  0.59554962     0.03500
C1993       C  0.62301553  0.79008152  0.59387616    -0.10600
H1994       H  0.70941204  0.89224541  0.59781858     0.09100
H1995       H  0.69729268  0.78209787  0.60026933     0.06600
H1996       H  0.58966068  0.77134793  0.59319090     0.06400
O1997       O  0.56689229  0.93357825  0.85996073    -0.74900
O1998       O  0.55642275  0.92911634  0.91288371    -0.53800
C1999       C  0.57067519  0.92307221  0.88216739     0.78800
O2000       O  0.58375279  0.61920553  0.90575820    -0.59500
O2001       O  0.52489787  0.59073543  0.88591619    -0.52600
C2002       C  0.56216968  0.62155443  0.89245025     0.70800
O2003       O  0.62091159  0.56926177  0.95278918    -0.74100
O2004       O  0.58819330  0.00529507  0.96406854    -0.54700
C2005       C  0.61981591  0.54315313  0.96315727     0.76800
O2006       O  0.52276452  0.98029136  0.81437813    -0.59200
O2007       O  0.98850651  0.51151050  0.83600915    -0.52400
C2008       C  0.00516914  0.99636662  0.81141859     0.73400
Zr2009     Zr  0.53315788  0.96452777  0.85759719     2.54700
O2010       O  0.60137628  0.99849974  0.82281064    -0.79800
O2011       O  0.99887283  0.89518994  0.81790475    -0.93200
Zr2012     Zr  0.57741734  0.56735645  0.92548187     2.64700
O2013       O  0.64474409  0.59530822  0.88903644    -0.98200
O2014       O  0.60674677  0.63286463  0.96635288    -0.80200
O2015       O  0.56654418  0.00260204  0.90508866    -0.83600
O2016       O  0.54488671  0.52968427  0.87775842    -2.18300
O2017       O  0.88025131  0.91000729  0.88337860    -0.67000
O2018       O  0.90949381  0.97611573  0.87662647    -0.51600
C2019       C  0.88056336  0.93617743  0.87370778     0.71800
O2020       O  0.97303047  0.49876350  0.52639492    -0.59900
O2021       O  0.50612896  0.96615258  0.00488319    -0.51900
C2022       C  0.98731462  0.98069854  0.52895536     0.73600
O2023       O  0.93419366  0.54949341  0.98074135    -0.71300
O2024       O  0.94345270  0.55241115  0.92759430    -0.50000
C2025       C  0.93084995  0.56019574  0.95846171     0.75000
O2026       O  0.91122769  0.86211107  0.94005298    -0.66600
O2027       O  0.97314095  0.89014460  0.95521125    -0.53800
C2028       C  0.93428638  0.86067254  0.95245877     0.73300
Zr2029     Zr  0.92087333  0.91072632  0.91332535     2.77500
O2030       O  0.85082383  0.87874736  0.94572865    -0.97400
O2031       O  0.89908637  0.84602022  0.87159941    -0.78200
Zr2032     Zr  0.96459727  0.51521728  0.98254278     2.70100
O2033       O  0.89285196  0.97713072  0.51549520    -0.79400
O2034       O  0.49100997  0.57744163  0.52555909    -0.98500
Zr2035     Zr  0.52011152  0.96112599  0.94620264     2.21500
Zr2036     Zr  0.97664786  0.51715934  0.89424443     2.11100
O2037       O  0.93073684  0.97725248  0.93559196    -2.47200
O2038       O  0.95355643  0.94841618  0.96107003    -0.79200
O2039       O  0.96509118  0.95119116  0.87170863    -0.71400
O2040       O  0.53269172  0.52778772  0.96751163    -2.32400
O2041       O  0.98713896  0.92114263  0.89737854    -2.28600
O2042       O  0.51130477  0.55737907  0.94196918    -0.73200
H2043       H  0.56159148  0.54635157  0.86078405     0.78800
H2044       H  0.54649620  0.54197945  0.98667779     0.79900
H2045       H  0.90401599  0.97339870  0.94063318     0.82100
H2046       H  0.98332884  0.89415146  0.89029480     0.79700
H2047       H  0.58198675  0.63039395  0.98207456     0.42800
H2048       H  0.50652157  0.60093125  0.51373862     0.41700
H2049       H  0.88826275  0.99948588  0.52794628     0.41400
H2050       H  0.84422014  0.89952700  0.95071622     0.39300
H2051       H  0.89928361  0.85271410  0.85207014     0.42500
H2052       H  0.99447600  0.87479797  0.82827869     0.37300
H2053       H  0.61238019  0.52336667  0.82667016     0.43400
H2054       H  0.63910613  0.59449259  0.86856928     0.39800
H2055       H  0.83195708  0.85468033  0.92997815     0.44700
H2056       H  0.53036128  0.89906512  0.80417772     0.43400
H2057       H  0.66221515  0.62583924  0.89885186     0.43600
H2058       H  0.97163887  0.58164777  0.53632924     0.43900
O2059       O  0.56086328  0.92713338  0.60784772    -0.74900
O2060       O  0.56050806  0.93223350  0.66121517    -0.53800
C2061       C  0.56922506  0.92103872  0.63007272     0.78800
O2062       O  0.58046385  0.61197452  0.64056678    -0.59500
O2063       O  0.51542146  0.58133317  0.62992640    -0.52600
C2064       C  0.55471375  0.61125528  0.62980254     0.70800
O2065       O  0.62895299  0.57298966  0.68763889    -0.74100
O2066       O  0.60154571  0.01591464  0.70587389    -0.54700
C2067       C  0.63110190  0.55139455  0.70086168     0.76800
O2068       O  0.50737136  0.96474670  0.56386727    -0.59200
O2069       O  0.97545532  0.49996373  0.58650035    -0.52400
C2070       C  0.98774721  0.98055012  0.56204929     0.73400
Zr2071     Zr  0.52424688  0.95549676  0.60694795     2.54700
O2072       O  0.58670753  0.98116089  0.56528047    -0.79800
O2073       O  0.98444310  0.88355751  0.57295662    -0.93200
Zr2074     Zr  0.57849234  0.56783013  0.66657039     2.64700
O2075       O  0.64283663  0.59558875  0.62663522    -0.98200
O2076       O  0.61032893  0.63638813  0.70387578    -0.80200
O2077       O  0.56747162  0.00136455  0.64854048    -0.83600
O2078       O  0.53818363  0.52313086  0.62333696    -2.18300
O2079       O  0.87093431  0.90413847  0.64784697    -0.67000
O2080       O  0.89840437  0.96633211  0.63442837    -0.51600
C2081       C  0.86916305  0.92734901  0.63613375     0.71800
O2082       O  0.98860031  0.51297769  0.77645736    -0.59900
O2083       O  0.52412018  0.98232921  0.75426633    -0.51900
C2084       C  0.00533100  0.99727965  0.77842484     0.73600
O2085       O  0.94268634  0.55873668  0.73223915    -0.71300
O2086       O  0.93722652  0.54764034  0.67920681    -0.50000
C2087       C  0.93151734  0.56211366  0.71012118     0.75000
O2088       O  0.91664019  0.87198015  0.70541373    -0.66600
O2089       O  0.98280322  0.90099906  0.71253387    -0.53800
C2090       C  0.94291101  0.87223075  0.71508706     0.73300
Zr2091     Zr  0.91935361  0.91322042  0.67528756     2.77500
O2092       O  0.85584353  0.89226691  0.71594689    -0.97400
O2093       O  0.88814460  0.84180094  0.64222619    -0.78200
Zr2094     Zr  0.97518860  0.52590742  0.73348646     2.70100
O2095       O  0.91600127  0.00881520  0.77743896    -0.79400
O2096       O  0.50903173  0.59321105  0.77070866    -0.98500
Zr2097     Zr  0.52935001  0.96937291  0.69555639     2.21500
Zr2098     Zr  0.96977273  0.51173537  0.64524094     2.11100
O2099       O  0.93167509  0.98090801  0.69212184    -2.47200
O2100       O  0.96163025  0.95927431  0.71727657    -0.79200
O2101       O  0.95551822  0.94388695  0.62784417    -0.71400
O2102       O  0.54145233  0.53608323  0.71346249    -2.32400
O2103       O  0.98452527  0.92131540  0.65358775    -2.28600
O2104       O  0.51307904  0.55905839  0.68758208    -0.73200
H2105       H  0.55194177  0.53659932  0.60458293     0.78800
H2106       H  0.55835096  0.55276321  0.73083627     0.79900
H2107       H  0.90511995  0.97769029  0.69930258     0.82100
H2108       H  0.98018057  0.89422160  0.64843345     0.79700
H2109       H  0.58843786  0.63234452  0.72346537     0.42800
H2110       H  0.49198984  0.58732836  0.79258782     0.41700
H2111       H  0.89880759  0.97750653  0.77362161     0.41400
H2112       H  0.84021325  0.86118955  0.71299331     0.39300
H2113       H  0.89139528  0.84514367  0.62001940     0.42500
H2114       H  0.97081927  0.86389752  0.58804907     0.37300
H2115       H  0.60187801  0.51170129  0.57009511     0.43400
H2116       H  0.63384978  0.58961522  0.60598695     0.39800
H2117       H  0.86575211  0.90373813  0.73732977     0.45300
H2118       H  0.50805584  0.88504022  0.55426487     0.43400
H2119       H  0.65872381  0.62676253  0.63387404     0.43600
H2120       H  0.99502471  0.59744403  0.78587549     0.43900
C2121       C  0.62883183  0.70098590  0.58432665    -0.21000
C2122       C  0.61396961  0.72652172  0.59987640    -0.09000
C2123       C  0.57616103  0.71087711  0.62246951     0.29900
C2124       C  0.55511529  0.67150036  0.63032291    -0.21000
C2125       C  0.57205874  0.64794683  0.61665235    -0.09000
C2126       C  0.60838452  0.66224118  0.59293955     0.29900
F2127       F  0.62471253  0.63927572  0.57889371    -0.19500
H2128       H  0.65741607  0.71194914  0.56654039     0.18200
H2129       H  0.52725197  0.66081682  0.64886917     0.18200
F2130       F  0.56144920  0.73497656  0.63922224    -0.19500
C2131       C  0.80545408  0.92282689  0.63952338    -0.21000
C2132       C  0.83051708  0.90775218  0.62394263    -0.09000
C2133       C  0.81770408  0.87311446  0.59749425     0.29900
C2134       C  0.77896376  0.85233161  0.58793979    -0.21000
C2135       C  0.75259199  0.86592797  0.60458932    -0.09000
C2136       C  0.76662159  0.90201575  0.63013056     0.29900
F2137       F  0.74177416  0.91558338  0.64746786    -0.19500
H2138       H  0.81520747  0.94968012  0.65990438     0.18200
H2139       H  0.76908054  0.82499121  0.56797272     0.18200
F2140       F  0.84268564  0.85950044  0.58097963    -0.19500
C2141       C  0.63899294  0.88288261  0.58320388    -0.21000
C2142       C  0.62656391  0.85493396  0.60238302    -0.09000
C2143       C  0.59546974  0.84903113  0.63019087     0.29900
C2144       C  0.57721830  0.87069005  0.63868176    -0.21000
C2145       C  0.58910033  0.89834446  0.61955429    -0.09000
C2146       C  0.62005780  0.90421642  0.59149482     0.29900
F2147       F  0.63311255  0.93166765  0.57295765    -0.19500
H2148       H  0.66340001  0.88824182  0.56198497     0.18200
H2149       H  0.55371923  0.86591750  0.66046536     0.18200
F2150       F  0.58388663  0.82354164  0.64999710    -0.19500
C2151       C  0.56894100  0.66459291  0.85944609    -0.21000
C2152       C  0.58251714  0.66255434  0.88357757    -0.09000
C2153       C  0.61705971  0.69995355  0.89820242     0.29900
C2154       C  0.63852828  0.73776493  0.88778652    -0.21000
C2155       C  0.62590106  0.73957897  0.86297990    -0.09000
C2156       C  0.59021141  0.70285634  0.84938608     0.29900
F2157       F  0.57658436  0.70370152  0.82584334    -0.19500
H2158       H  0.54238941  0.63640042  0.84785758     0.18200
H2159       H  0.66499821  0.76598153  0.89946299     0.18200
F2160       F  0.63000282  0.70031657  0.92289782    -0.19500
C2161       C  0.82777037  0.87930348  0.83705428    -0.21000
C2162       C  0.84420498  0.91846617  0.85896325    -0.09000
C2163       C  0.82260031  0.93745715  0.86963975     0.29900
C2164       C  0.78269719  0.91511270  0.86154035    -0.21000
C2165       C  0.76420927  0.87393999  0.84212251    -0.09000
C2166       C  0.78842560  0.85742228  0.82822493     0.29900
F2167       F  0.77317564  0.81907294  0.80759980    -0.19500
H2168       H  0.84466820  0.86478195  0.82790802     0.18200
H2169       H  0.76506361  0.92880416  0.87272905     0.18200
F2170       F  0.83807478  0.97564537  0.89052265    -0.19500
C2171       C  0.63994257  0.88402742  0.83437881    -0.21000
C2172       C  0.63161904  0.86008339  0.85545624    -0.09000
C2173       C  0.60400319  0.85778283  0.88518711     0.29900
C2174       C  0.58449641  0.87818888  0.89330372    -0.21000
C2175       C  0.59210935  0.90172624  0.87220206    -0.09000
C2176       C  0.62028727  0.90465313  0.84256595     0.29900
F2177       F  0.62974529  0.92826014  0.82198759    -0.19500
H2178       H  0.66167646  0.88674395  0.81161331     0.18200
H2179       H  0.56328719  0.87549005  0.91638240     0.18200
F2180       F  0.59690042  0.83694118  0.90707321    -0.19500
C2181       C  0.91726866  0.61492679  0.74968230    -0.21000
C2182       C  0.91048480  0.58400905  0.72054801    -0.09000
C2183       C  0.88417653  0.57497854  0.70072616     0.29900
C2184       C  0.86518055  0.59610168  0.70989305    -0.21000
C2185       C  0.87191688  0.62697312  0.73882442    -0.09000
C2186       C  0.89862297  0.63672297  0.75856386     0.29900
F2187       F  0.90637753  0.66694069  0.78642785    -0.19500
H2188       H  0.93767059  0.62282341  0.76522568     0.18200
H2189       H  0.84542809  0.58863818  0.69393690     0.18200
F2190       F  0.87625696  0.54533034  0.67249529    -0.19500
C2191       C  0.92163639  0.77343871  0.72547818    -0.21000
C2192       C  0.88426458  0.75839830  0.74831431    -0.09000
C2193       C  0.86960895  0.78432512  0.76334930     0.29900
C2194       C  0.88993698  0.82246025  0.75348431    -0.21000
C2195       C  0.92569815  0.83589189  0.72915117    -0.09000
C2196       C  0.94219749  0.81179519  0.71597801     0.29900
F2197       F  0.97585055  0.82326610  0.69161158    -0.19500
H2198       H  0.93330646  0.75401794  0.71301608     0.18200
H2199       H  0.87703962  0.84093303  0.76413148     0.18200
F2200       F  0.83467232  0.77198810  0.78655538    -0.19500
C2201       C  0.74723169  0.62677710  0.70579394    -0.21000
C2202       C  0.74942791  0.61818823  0.73276943    -0.09000
C2203       C  0.71280622  0.58525918  0.74803237     0.29900
C2204       C  0.67432311  0.56240433  0.73699293    -0.21000
C2205       C  0.67201519  0.57213441  0.71061538    -0.09000
C2206       C  0.70914993  0.60427370  0.69484212     0.29900
F2207       F  0.70882165  0.61424188  0.66879300    -0.19500
H2208       H  0.77528389  0.65126431  0.69313945     0.18200
H2209       H  0.64617232  0.53809730  0.74971896     0.18200
F2210       F  0.71397591  0.57629143  0.77424199    -0.19500
C2211       C  0.90213136  0.63070207  0.95847987    -0.21000
C2212       C  0.87062074  0.62355656  0.98602481    -0.09000
C2213       C  0.85692689  0.59396904  0.50580383     0.29900
C2214       C  0.88025118  0.57662671  0.99685826    -0.21000
C2215       C  0.91109100  0.58303939  0.96873253    -0.09000
C2216       C  0.92232938  0.61090904  0.94992961     0.29900
F2217       F  0.95321585  0.61949684  0.92341260    -0.19500
H2218       H  0.91061076  0.65112680  0.94307646     0.18200
H2219       H  0.86771817  0.55228803  0.51190946     0.18200
F2220       F  0.82637768  0.58627101  0.53249755    -0.19500
C2221       C  0.91131052  0.76023386  0.96077270    -0.21000
C2222       C  0.87445766  0.74566972  0.98421556    -0.09000
C2223       C  0.85628188  0.76962417  0.50003422     0.29900
C2224       C  0.87883422  0.80859698  0.98828539    -0.21000
C2225       C  0.91474453  0.82213932  0.96420422    -0.09000
C2226       C  0.93166090  0.79846881  0.95122320     0.29900
F2227       F  0.96671503  0.81135670  0.92813257    -0.19500
H2228       H  0.92358559  0.74129804  0.94882913     0.18200
H2229       H  0.86289148  0.82547495  0.49995255     0.18200
F2230       F  0.82196542  0.75794422  0.52381031    -0.19500
C2231       C  0.67159208  0.59672984  0.00124785    -0.21000
C2232       C  0.65701883  0.56029593  0.97635354    -0.09000
C2233       C  0.68153378  0.54448918  0.96095885     0.29900
C2234       C  0.72175289  0.56699436  0.96851993    -0.21000
C2235       C  0.73763918  0.60514081  0.99188433    -0.09000
C2236       C  0.71137997  0.61873778  0.00934130     0.29900
F2237       F  0.72235676  0.65267852  0.53490268    -0.19500
H2238       H  0.65277289  0.60905080  0.01347614     0.18200
H2239       H  0.74146403  0.55606916  0.95452762     0.18200
F2240       F  0.66815824  0.50952218  0.93655901    -0.19500
loop_ 
_geom_bond_atom_site_label_1 
_geom_bond_atom_site_label_2 
_geom_bond_distance 
_geom_bond_site_symmetry_2 
_ccdc_geom_bond_type 
C1            C2   1.404       .  A
C1            C6   1.405       .  A
C1          C532   1.478       .  S
C2            C3   1.404       .  A
C2            H7   1.084       .  S
C3            C4   1.404       .  A
C3          C555   1.482       .  S
C4            C5   1.402       .  A
C4            H8   1.083       .  S
C5            C6   1.403       .  A
C5          C542   1.489       .  S
C6            H9   1.083       .  S
C10          C11   1.406       .  A
C10          C15   1.406       .  A
C10         C225   1.480       .  S
C11          C12   1.409       .  A
C11          H16   1.083       .  S
C12          C13   1.404       .  A
C12         C232   1.492       .  S
C13          C14   1.403       .  A
C13          H17   1.083       .  S
C14          C15   1.398       .  A
C14         C242   1.478       .  S
C15          H18   1.084       .  S
C19          C20   1.406       .  A
C19          C24   1.405       .  A
C19         C212   1.482       .  S
C20          C21   1.408       .  A
C20          H25   1.083       .  S
C21          C22   1.407       .  A
C21         C205   1.492       .  S
C22          C23   1.403       .  A
C22          H26   1.083       .  S
C23          C24   1.399       .  A
C23         C195   1.483       .  S
C24          H27   1.084       .  S
C28          C29   1.404       .  A
C28          C33   1.402       .  A
C28         C182   1.473       .  S
C29          C30   1.404       .  A
C29          H34   1.083       .  S
C30          C31   1.400       .  A
C30         C175   1.486       .  S
C31          C32   1.403       .  A
C31          H35   1.084       .  S
C32          C33   1.404       .  A
C32         C162   1.481       .  S
C33          H36   1.083       .  S
O37         Zr49   2.459       .  S
O37          C39   1.291       .  A
O38         Zr75   2.420       .  S
O38          C39   1.287       .  A
C39         C215   1.488       .  S
O40         Zr52   2.424       .  S
O40          C42   1.285       .  A
O41       Zr1196   2.429   1_455  S
O41          C42   1.287       .  A
C42         C192   1.481       .  S
O43         Zr52   2.433       .  S
O43          C45   1.286       .  A
O44         Zr75   2.421       .  S
O44         C605   1.285       .  A
C45         C272   1.468       .  S
C45         O604   1.286       .  A
O46         Zr49   2.456       .  S
O46        C1168   1.292       .  A
O47         Zr76   2.410       .  S
O47         C608   1.284   1_545  A
C48         C124   1.470       .  S
C48        O1166   1.291       .  A
C48         O607   1.284       .  A
Zr49         O50   2.436       .  S
Zr49       O1171   2.438       .  S
Zr49         O55   2.376       .  S
Zr49        O616   2.375       .  S
Zr49       O1199   2.373   1_455  S
Zr49       O1201   2.380   1_455  S
O50         H653   0.990       .  S
O51       Zr1169   2.436       .  S
O51          H92   0.990       .  S
O51        H1216   0.990       .  S
Zr52         O53   2.439       .  S
Zr52         O54   2.434       .  S
Zr52         O56   2.369       .  S
Zr52         O80   2.364       .  S
Zr52         O82   2.371       .  S
Zr52        O615   2.370       .  S
O53          H94   0.991       .  S
O53          H97   0.990       .  S
O54          H87   0.990       .  S
O55         Zr75   2.377       .  S
O55        Zr612   2.368       .  S
O56        Zr609   2.371   1_545  S
O56       Zr1196   2.378   1_455  S
O56          H83   0.966       .  S
O57         Zr69   2.443       .  S
O57          C59   1.289       .  A
O58        Zr636   2.413       .  S
O58          C59   1.283       .  A
C59         C202   1.470       .  S
O60        Zr352   2.452   1_564  S
O60         C622   1.291       .  A
O61         Zr75   2.422       .  S
O61        C1462   1.286   1_455  A
C62         C110   1.464       .  S
C62         O620   1.289       .  A
C62        O1461   1.283       .  A
O63         Zr72   2.446       .  S
O63          C65   1.288       .  A
O64         Zr76   2.412       .  S
O64          C65   1.285       .  A
C65         C255   1.480       .  S
O66         Zr69   2.445       .  S
O66          C68   1.288       .  A
O67       Zr1195   2.415       .  S
O67          C68   1.284       .  A
C68         C265   1.468       .  S
Zr69         O70   2.434       .  S
Zr69         O71   2.437       .  S
Zr69         O77   2.372       .  S
Zr69         O78   2.369       .  S
Zr69         O81   2.375       .  S
Zr69         O79   2.367       .  S
O70          H90   0.990       .  S
O70          H95   0.990       .  S
O71          H91   0.990       .  S
Zr72        O340   2.448   1_545  S
Zr72        O913   2.436   1_545  S
Zr72       O1474   2.437       .  S
Zr72        O638   2.369   1_545  S
Zr72        O637   2.379   1_545  S
Zr72       O1202   2.373       .  S
Zr72       O1200   2.372       .  S
O73        Zr912   2.434   1_554  S
O73          H89   0.990       .  S
O74       Zr1472   2.435   1_554  S
O74          H88   0.990   1_655  S
O74        H1218   0.990       .  S
Zr75       O1187   2.411   1_455  S
Zr75       O1198   2.378   1_455  S
Zr75        O640   2.380       .  S
Zr75       O1201   2.385   1_455  S
Zr76       O1161   2.427       .  S
Zr76        O618   2.418   1_545  S
Zr76       O1176   2.381       .  S
Zr76        O637   2.385   1_545  S
Zr76        O639   2.379   1_545  S
Zr76       O1202   2.375       .  S
O77        Zr632   2.375       .  S
O77        Zr636   2.383       .  S
O77          H85   0.966       .  S
O78        Zr632   2.369       .  S
O78       Zr1195   2.377       .  S
O79       Zr1169   2.368       .  S
O79        Zr636   2.379       .  S
O80       Zr1192   2.368   1_455  S
O80        Zr635   2.374   1_545  S
O80          H84   0.968       .  S
O81       Zr1169   2.379       .  S
O81       Zr1195   2.385       .  S
O81          H86   0.965       .  S
O82       Zr1192   2.374   1_455  S
O82       Zr1196   2.373   1_455  S
H93         O610   0.990       .  S
H96        O1171   0.990       .  S
H98        O1194   0.990       .  S
O99        Zr111   2.445       .  S
O99         C101   1.288       .  A
O100       Zr137   2.402       .  S
O100        C101   1.284       .  A
C101        C185   1.480       .  S
O102       Zr114   2.438       .  S
O102        C104   1.287       .  A
O103      Zr1258   2.409   1_455  S
O103        C104   1.283       .  A
C104        C165   1.459       .  S
O105       Zr114   2.426       .  S
O105        C107   1.286       .  A
O106       Zr137   2.429       .  S
O106        C667   1.287       .  A
C107        C245   1.478       .  S
C107        O666   1.287       .  A
O108       Zr111   2.442       .  S
O108       C1230   1.289   1_455  A
O109       Zr138   2.415   1_565  S
O109        C670   1.285       .  A
C110       O1228   1.289       .  A
C110        O669   1.283       .  A
Zr111       O112   2.435       .  S
Zr111      O1233   2.437   1_455  S
Zr111       O117   2.375       .  S
Zr111       O678   2.373       .  S
Zr111      O1261   2.368   1_455  S
Zr111      O1263   2.369   1_455  S
O112        H715   0.990       .  S
O113      Zr1231   2.435       .  S
O113        H154   0.990       .  S
O113       H1278   0.990       .  S
Zr114       O115   2.434       .  S
Zr114       O116   2.437       .  S
Zr114       O118   2.364       .  S
Zr114       O142   2.372       .  S
Zr114       O144   2.372       .  S
Zr114       O677   2.371       .  S
O115        H156   0.990       .  S
O115        H159   0.990       .  S
O116        H149   0.990       .  S
O117       Zr137   2.378       .  S
O117       Zr674   2.371       .  S
O118       Zr671   2.369   1_545  S
O118      Zr1258   2.381   1_455  S
O118        H145   0.965       .  S
O119       Zr131   2.439       .  S
O119        C121   1.287       .  A
O120       Zr698   2.417       .  S
O120        C121   1.284       .  A
C121        C172   1.466       .  S
O122       Zr134   2.449       .  S
O122        C684   1.290   1_545  A
O123       Zr137   2.405       .  S
O123       C1244   1.283       .  A
C124        O682   1.291       .  A
C124       O1243   1.284       .  A
O125       Zr134   2.454       .  S
O125        C127   1.289       .  A
O126       Zr138   2.416       .  S
O126        C127   1.285       .  A
C127        C222   1.487       .  S
O128       Zr131   2.439       .  S
O128        C130   1.287       .  A
O129      Zr1257   2.423       .  S
O129        C130   1.285       .  A
C130        C235   1.472       .  S
Zr131       O132   2.436       .  S
Zr131       O133   2.437       .  S
Zr131       O139   2.373       .  S
Zr131       O140   2.369       .  S
Zr131       O143   2.368       .  S
Zr131       O141   2.369       .  S
O132        H152   0.991       .  S
O132        H157   0.990       .  S
O133        H153   0.990       .  S
Zr134       O695   2.434       .  S
Zr134      O1256   2.437       .  S
Zr134       O700   2.374   1_545  S
Zr134       O699   2.382   1_545  S
Zr134      O1264   2.375       .  S
Zr134      O1262   2.375       .  S
O135       Zr694   2.433       .  S
O135        H151   0.990       .  S
O136      Zr1254   2.436   1_455  S
O136        H150   0.990       .  S
O136       H1280   0.990   1_455  S
Zr137      O1249   2.427   1_455  S
Zr137      O1260   2.375   1_455  S
Zr137       O702   2.382       .  S
Zr137      O1263   2.382   1_455  S
Zr138      O1223   2.408       .  S
Zr138       O680   2.419   1_545  S
Zr138      O1238   2.385       .  S
Zr138       O699   2.380   1_545  S
Zr138       O701   2.377   1_545  S
Zr138      O1264   2.380       .  S
O139       Zr694   2.378       .  S
O139       Zr698   2.379       .  S
O139        H147   0.967       .  S
O140       Zr694   2.370       .  S
O140      Zr1257   2.374       .  S
O141      Zr1231   2.370       .  S
O141       Zr698   2.376       .  S
O142      Zr1254   2.369   1_455  S
O142       Zr697   2.382   1_545  S
O142        H146   0.964       .  S
O143      Zr1231   2.379       .  S
O143      Zr1257   2.385       .  S
O143        H148   0.965       .  S
O144      Zr1254   2.378   1_455  S
O144      Zr1258   2.382   1_455  S
H155        O672   0.990   1_545  S
H158       O1233   0.990       .  S
H160       O1256   0.990       .  S
C161        C162   1.407       .  A
C161        C166   1.393       .  A
C161        H168   1.083       .  S
C162        C163   1.411       .  A
C163        C164   1.396       .  A
C163        F170   1.357       .  S
C164        C165   1.399       .  A
C164        H169   1.084       .  S
C165        C166   1.401       .  A
C166        F167   1.358       .  S
C171        C172   1.400       .  A
C171        C176   1.396       .  A
C171        H178   1.084       .  S
C172        C173   1.403       .  A
C173        C174   1.397       .  A
C173        F180   1.358       .  S
C174        C175   1.408       .  A
C174        H179   1.083       .  S
C175        C176   1.410       .  A
C176        F177   1.357       .  S
C181        C182   1.403       .  A
C181        C186   1.403       .  A
C181        H188   1.083       .  S
C182        C183   1.401       .  A
C183        C184   1.390       .  A
C183        F190   1.358       .  S
C184        C185   1.406       .  A
C184        H189   1.083       .  S
C185        C186   1.411       .  A
C186        F187   1.358       .  S
C191        C192   1.408       .  A
C191        C196   1.402       .  A
C191        H198   1.083       .  S
C192        C193   1.409       .  A
C193        C194   1.391       .  A
C193        F200   1.358       .  S
C194        C195   1.402       .  A
C194        H199   1.083       .  S
C195        C196   1.408       .  A
C196        F197   1.357       .  S
C201        C202   1.401       .  A
C201        C206   1.395       .  A
C201        H208   1.084       .  S
C202        C203   1.404       .  A
C203        C204   1.399       .  A
C203        F210   1.358       .  S
C204        C205   1.410       .  A
C204        H209   1.082       .  S
C205        C206   1.410       .  A
C206        F207   1.357       .  S
C211        C212   1.405       .  A
C211        C216   1.404       .  A
C211        H218   1.083       .  S
C212        C213   1.406       .  A
C213        C214   1.393       .  A
C213        F220   1.358       .  S
C214        C215   1.406       .  A
C214        H219   1.083       .  S
C215        C216   1.412       .  A
C216        F217   1.357       .  S
C221        C222   1.410       .  A
C221        C226   1.406       .  A
C221        H228   1.083       .  S
C222        C223   1.410       .  A
C223        C224   1.392       .  A
C223        F230   1.358       .  S
C224        C225   1.401       .  A
C224        H229   1.084       .  S
C225        C226   1.405       .  A
C226        F227   1.358       .  S
C231        C232   1.409       .  A
C231        C236   1.398       .  A
C231        H238   1.082       .  S
C232        C233   1.412       .  A
C233        C234   1.399       .  A
C233        F240   1.358       .  S
C234        C235   1.402       .  A
C234        H239   1.084       .  S
C235        C236   1.403       .  A
C236        F237   1.358       .  S
C241        C242   1.401       .  A
C241        C246   1.388       .  A
C241        H248   1.084       .  S
C242        C243   1.407       .  A
C243        C244   1.404       .  A
C243        F250   1.357       .  S
C244        C245   1.408       .  A
C244        H249   1.083       .  S
C245        C246   1.408       .  A
C246        F247   1.358       .  S
C251        C252   1.402       .  A
C251        C256   1.393       .  A
C251        H258   1.084       .  S
C252        C533   1.405       .  A
C252        C281   1.480       .  S
C253        C532   1.405   1_554  A
C253        C534   1.401   1_554  A
C253        F260   1.357       .  S
C254        C255   1.407       .  A
C254        C533   1.403       .  A
C254        H539   1.083       .  S
C255        C256   1.409       .  A
C256        F257   1.358       .  S
H259        C534   1.083   1_554  S
C261        C262   1.408       .  A
C261        C266   1.396       .  A
C261        H268   1.082       .  S
C262        C543   1.411       .  A
C262        C285   1.489       .  S
C263        C542   1.411       .  A
C263        C544   1.398       .  A
C263        F270   1.358   1_556  S
C264        C265   1.402       .  A
C264        C543   1.399       .  A
C264        H549   1.084       .  S
C265        C266   1.402       .  A
C266        F267   1.358       .  S
H269        C544   1.084       .  S
C271        C272   1.401       .  A
C271        C276   1.397       .  A
C271        H278   1.083       .  S
C272        C273   1.403       .  A
C273        C274   1.399       .  A
C273        F280   1.358       .  S
C274        C275   1.407       .  A
C274        H279   1.083       .  S
C275        C276   1.410       .  A
C275        C283   1.485       .  S
C276        F557   1.358       .  S
F277        C556   1.358       .  S
C281        C282   1.406       .  A
C281        C286   1.404       .  A
C282        C283   1.406       .  A
C282        H287   1.084       .  S
C283        C284   1.404       .  A
C284        C285   1.403       .  A
C284        H288   1.083       .  S
C285        C286   1.404       .  A
C286        H289   1.083       .  S
C290        C291   1.404       .  A
C290        C295   1.404       .  A
C290        C505   1.471       .  S
C291        C292   1.406       .  A
C291        H296   1.084       .  S
C292        C293   1.404       .  A
C292        C512   1.487       .  S
C293        C294   1.401       .  A
C293        H297   1.083       .  S
C294        C295   1.398       .  A
C294        C522   1.479       .  S
C295        H298   1.084       .  S
C299        C300   1.406       .  A
C299        C304   1.403       .  A
C299        C492   1.476       .  S
C300        C301   1.407       .  A
C300        H305   1.083       .  S
C301        C302   1.406       .  A
C301        C485   1.489       .  S
C302        C303   1.400       .  A
C302        H306   1.083       .  S
C303        C304   1.396       .  A
C303        C475   1.478       .  S
C304        H307   1.084       .  S
C308        C309   1.401       .  A
C308        C313   1.401       .  A
C308        C462   1.469       .  S
C309        C310   1.401       .  A
C309        H314   1.083       .  S
C310        C311   1.405       .  A
C310        C455   1.488       .  S
C311        C312   1.407       .  A
C311        H315   1.084       .  S
C312        C313   1.403       .  A
C312        C442   1.483       .  S
C313        H316   1.084       .  S
O317       Zr329   2.450       .  S
O317        C319   1.289       .  A
O318       Zr355   2.408       .  S
O318        C319   1.285       .  A
C319        C495   1.483       .  S
O320       Zr332   2.416       .  S
O320        C322   1.284       .  A
O321      Zr1476   2.429   1_455  S
O321        C322   1.287       .  A
C322        C472   1.478       .  S
O323       Zr332   2.430       .  S
O323        C325   1.286       .  A
O324       Zr355   2.420       .  S
O324        C885   1.284       .  A
C325        C552   1.466       .  S
C325        O884   1.285       .  A
O326       Zr329   2.450       .  S
O326       C1448   1.290       .  A
O327       Zr356   2.411       .  S
O327        C888   1.284   1_545  A
C328        C404   1.469       .  S
C328       O1446   1.290       .  A
C328        O887   1.284       .  A
Zr329       O330   2.436       .  S
Zr329      O1451   2.436   1_455  S
Zr329       O335   2.377       .  S
Zr329       O896   2.370       .  S
Zr329      O1479   2.369   1_455  S
Zr329      O1481   2.379   1_455  S
O330        H933   0.990       .  S
O331      Zr1449   2.438       .  S
O331        H372   0.990       .  S
O331       H1496   0.990       .  S
Zr332       O333   2.436       .  S
Zr332       O334   2.434       .  S
Zr332       O336   2.364       .  S
Zr332       O895   2.369       .  S
Zr332       O360   2.361       .  S
Zr332       O362   2.374       .  S
O333        H374   0.990       .  S
O333        H377   0.990       .  S
O334        H367   0.990       .  S
O335       Zr892   2.367       .  S
O335       Zr355   2.374       .  S
O336       Zr889   2.376   1_545  S
O336      Zr1476   2.380   1_455  S
O336        H363   0.966       .  S
O337       Zr349   2.441       .  S
O337        C339   1.288       .  A
O338       Zr916   2.420       .  S
O338        C339   1.285       .  A
C339        C482   1.472       .  S
O340        C902   1.290       .  A
O341       Zr355   2.409   1_554  S
O341       C1182   1.284   1_455  A
C342        C390   1.469       .  S
C342        O900   1.290       .  A
C342       O1181   1.284       .  A
O343       Zr352   2.449       .  S
O343        C345   1.289       .  A
O344       Zr356   2.411       .  S
O344        C345   1.285       .  A
C345        C535   1.479       .  S
O346       Zr349   2.443       .  S
O346        C348   1.288       .  A
O347      Zr1475   2.417       .  S
O347        C348   1.285       .  A
C348        C545   1.468       .  S
Zr349       O350   2.438       .  S
Zr349       O351   2.437       .  S
Zr349       O357   2.375       .  S
Zr349       O358   2.372       .  S
Zr349       O361   2.374       .  S
Zr349       O359   2.368       .  S
O350        H370   0.990       .  S
O350        H375   0.990       .  S
O351        H371   0.990       .  S
Zr352       O633   2.434   1_546  S
Zr352      O1194   2.433   1_556  S
Zr352       O918   2.369   1_545  S
Zr352       O917   2.378   1_545  S
Zr352      O1482   2.372       .  S
Zr352      O1480   2.369       .  S
O353       Zr632   2.435       .  S
O353        H369   0.990       .  S
O354      Zr1192   2.435       .  S
O354        H368   0.990   1_655  S
O354       H1498   0.990       .  S
Zr355      O1467   2.406   1_455  S
Zr355      O1478   2.377   1_455  S
Zr355       O920   2.378       .  S
Zr355      O1481   2.382   1_455  S
Zr356      O1441   2.421       .  S
Zr356       O898   2.420   1_545  S
Zr356      O1456   2.382       .  S
Zr356       O917   2.383   1_545  S
Zr356       O919   2.378   1_545  S
Zr356      O1482   2.376       .  S
O357       Zr912   2.375       .  S
O357       Zr916   2.384       .  S
O357        H365   0.966       .  S
O358       Zr912   2.369       .  S
O358      Zr1475   2.379       .  S
O359      Zr1449   2.370       .  S
O359       Zr916   2.383       .  S
O360      Zr1472   2.366   1_455  S
O360       Zr915   2.373   1_545  S
O360        H364   0.967       .  S
O361      Zr1449   2.375       .  S
O361      Zr1475   2.384       .  S
O361        H366   0.965       .  S
O362      Zr1472   2.377   1_455  S
O362      Zr1476   2.372   1_455  S
H373        O890   0.990   1_545  S
H376       O1451   0.990   1_455  S
H378       O1474   0.990       .  S
O379       Zr391   2.444       .  S
O379        C381   1.288       .  A
O380       Zr417   2.409       .  S
O380        C381   1.285       .  A
C381        C465   1.481       .  S
O382       Zr394   2.432       .  S
O382        C384   1.286       .  A
O383      Zr1538   2.416   1_455  S
O383        C384   1.283       .  A
C384        C445   1.462       .  S
O385       Zr394   2.428       .  S
O385        C387   1.286       .  A
O386       Zr417   2.438       .  S
O386        C947   1.288       .  A
C387        C525   1.481       .  S
C387        O946   1.287       .  A
O388       Zr391   2.455       .  S
O388       C1510   1.291   1_455  A
O389       Zr418   2.409   1_565  S
O389        C950   1.284       .  A
C390       O1508   1.290       .  A
C390        O949   1.284       .  A
Zr391       O392   2.436       .  S
Zr391      O1513   2.434   1_455  S
Zr391       O397   2.378       .  S
Zr391       O958   2.371       .  S
Zr391      O1541   2.367   1_455  S
Zr391      O1543   2.374   1_455  S
O392        H995   0.990       .  S
O393      Zr1511   2.436       .  S
O393        H434   0.990       .  S
O393       H1558   0.990       .  S
Zr394       O395   2.436       .  S
Zr394       O396   2.437       .  S
Zr394       O398   2.365       .  S
Zr394       O957   2.372       .  S
Zr394       O422   2.370       .  S
Zr394       O424   2.372       .  S
O395        H436   0.990       .  S
O395        H439   0.990       .  S
O396        H429   0.990       .  S
O397       Zr954   2.369       .  S
O397       Zr417   2.377       .  S
O398       Zr951   2.371   1_545  S
O398      Zr1538   2.381   1_455  S
O398        H425   0.965       .  S
O399       Zr411   2.438       .  S
O399        C401   1.286       .  A
O400       Zr978   2.419       .  S
O400        C401   1.285       .  A
C401        C452   1.467       .  S
O402       Zr414   2.452       .  S
O402        C964   1.291   1_545  A
O403       Zr417   2.406       .  S
O403       C1524   1.283       .  A
C404        O962   1.290       .  A
C404       O1523   1.284       .  A
O405       Zr414   2.460       .  S
O405        C407   1.291       .  A
O406       Zr418   2.401       .  S
O406        C407   1.283       .  A
C407        C502   1.484       .  S
O408       Zr411   2.435       .  S
O408        C410   1.287       .  A
O409      Zr1537   2.422       .  S
O409        C410   1.285       .  A
C410        C515   1.467       .  S
Zr411       O412   2.435       .  S
Zr411       O413   2.436       .  S
Zr411       O419   2.369       .  S
Zr411       O420   2.372       .  S
Zr411       O423   2.376       .  S
Zr411       O421   2.364       .  S
O412        H432   0.990       .  S
O412        H437   0.990       .  S
O413        H433   0.990       .  S
Zr414       O975   2.431       .  S
Zr414      O1536   2.437       .  S
Zr414       O980   2.374   1_545  S
Zr414       O979   2.377   1_545  S
Zr414      O1544   2.373       .  S
Zr414      O1542   2.372       .  S
O415       Zr974   2.438       .  S
O415        H431   0.990       .  S
O416      Zr1534   2.436   1_455  S
O416        H430   0.990   1_455  S
O416       H1560   0.990       .  S
Zr417      O1529   2.428   1_455  S
Zr417      O1540   2.379   1_455  S
Zr417       O982   2.381       .  S
Zr417      O1543   2.387   1_455  S
Zr418      O1503   2.415       .  S
Zr418       O960   2.427   1_545  S
Zr418      O1518   2.384       .  S
Zr418       O979   2.380   1_545  S
Zr418       O981   2.375   1_545  S
Zr418      O1544   2.381       .  S
O419       Zr974   2.378       .  S
O419       Zr978   2.379       .  S
O419        H427   0.967       .  S
O420       Zr974   2.373       .  S
O420      Zr1537   2.382       .  S
O421      Zr1511   2.369       .  S
O421       Zr978   2.375       .  S
O422      Zr1534   2.371   1_455  S
O422       Zr977   2.381   1_545  S
O422        H426   0.964       .  S
O423      Zr1511   2.372       .  S
O423      Zr1537   2.386       .  S
O423        H428   0.966       .  S
O424      Zr1534   2.371   1_455  S
O424      Zr1538   2.375   1_455  S
H435        O952   0.990   1_545  S
H438       O1513   0.990       .  S
H440       O1536   0.990       .  S
C441        C442   1.405       .  A
C441        C446   1.394       .  A
C441        H448   1.083       .  S
C442        C443   1.412       .  A
C443        C444   1.398       .  A
C443        F450   1.357       .  S
C444        C445   1.400       .  A
C444        H449   1.084       .  S
C445        C446   1.401       .  A
C446        F447   1.358       .  S
C451        C452   1.400       .  A
C451        C456   1.398       .  A
C451        H458   1.084       .  S
C452        C453   1.403       .  A
C453        C454   1.397       .  A
C453        F460   1.358       .  S
C454        C455   1.406       .  A
C454        H459   1.083       .  S
C455        C456   1.413       .  A
C456        F457   1.357       .  S
C461        C462   1.401       .  A
C461        C466   1.402       .  A
C461        H468   1.083       .  S
C462        C463   1.402       .  A
C463        C464   1.389       .  A
C463        F470   1.358       .  S
C464        C465   1.406       .  A
C464        H469   1.083       .  S
C465        C466   1.412       .  A
C466        F467   1.357       .  S
C471        C472   1.407       .  A
C471        C476   1.401       .  A
C471        H478   1.083       .  S
C472        C473   1.410       .  A
C473        C474   1.390       .  A
C473        F480   1.358       .  S
C474        C475   1.401       .  A
C474        H479   1.084       .  S
C475        C476   1.406       .  A
C476        F477   1.357       .  S
C481        C482   1.402       .  A
C481        C486   1.395       .  A
C481        H488   1.084       .  S
C482        C483   1.405       .  A
C483        C484   1.400       .  A
C483        F490   1.358       .  S
C484        C485   1.408       .  A
C484        H489   1.082       .  S
C485        C486   1.409       .  A
C486        F487   1.358       .  S
C491        C492   1.403       .  A
C491        C496   1.402       .  A
C491        H498   1.083       .  S
C492        C493   1.405       .  A
C493        C494   1.389       .  A
C493        F500   1.358       .  S
C494        C495   1.406       .  A
C494        H499   1.083       .  S
C495        C496   1.411       .  A
C496        F497   1.357       .  S
C501        C502   1.409       .  A
C501        C506   1.402       .  A
C501        H508   1.083       .  S
C502        C503   1.413       .  A
C503        C504   1.391       .  A
C503        F510   1.358       .  S
C504        C505   1.399       .  A
C504        H509   1.084       .  S
C505        C506   1.403       .  A
C506        F507   1.357       .  S
C511        C512   1.408       .  A
C511        C516   1.397       .  A
C511        H518   1.083       .  S
C512        C513   1.410       .  A
C513        C514   1.395       .  A
C513        F520   1.358       .  S
C514        C515   1.401       .  A
C514        H519   1.084       .  S
C515        C516   1.403       .  A
C516        F517   1.358       .  S
C521        C522   1.402       .  A
C521        C526   1.388       .  A
C521        H528   1.084       .  S
C522        C523   1.406       .  A
C523        C524   1.403       .  A
C523        F530   1.357       .  S
C524        C525   1.409       .  A
C524        H529   1.083       .  S
C525        C526   1.409       .  A
C526        F527   1.358       .  S
C531        C532   1.402       .  A
C531        C536   1.392       .  A
C531        H538   1.084       .  S
C533        F540   1.357       .  S
C534        C535   1.407       .  A
C535        C536   1.408       .  A
C536        F537   1.358       .  S
C541        C542   1.408       .  A
C541        C546   1.396       .  A
C541        H548   1.082       .  S
C543        F550   1.358       .  S
C544        C545   1.401       .  A
C545        C546   1.402       .  A
C546        F547   1.358       .  S
C551        C552   1.401   1_554  A
C551        C556   1.395       .  A
C551        H558   1.084       .  S
C552        C553   1.403       .  A
C553        C554   1.398       .  A
C553        F560   1.358       .  S
C554        C555   1.407       .  A
C554        H559   1.083       .  S
C555        C556   1.408   1_556  A
C561        C562   1.405       .  A
C561        C566   1.405       .  A
C561       C1092   1.481       .  S
C562        C563   1.405       .  A
C562        H567   1.084       .  S
C563        C564   1.403       .  A
C563       C1115   1.482       .  S
C564        C565   1.401       .  A
C564        H568   1.083       .  S
C565        C566   1.403       .  A
C565       C1102   1.487       .  S
C566        H569   1.084       .  S
C570        C571   1.407       .  A
C570        C575   1.405       .  A
C570        C785   1.477       .  S
C571        C572   1.408       .  A
C571        H576   1.084       .  S
C572        C573   1.403       .  A
C572        C792   1.489       .  S
C573        C574   1.401       .  A
C573        H577   1.083       .  S
C574        C575   1.398       .  A
C574        C802   1.480       .  S
C575        H578   1.084       .  S
C579        C580   1.404       .  A
C579        C584   1.403       .  A
C579        C772   1.476       .  S
C580        C581   1.408       .  A
C580        H585   1.083       .  S
C581        C582   1.409       .  A
C581        C765   1.493       .  S
C582        C583   1.403       .  A
C582        H586   1.083       .  S
C583        C584   1.398       .  A
C583        C755   1.481       .  S
C584        H587   1.084       .  S
C588        C589   1.401       .  A
C588        C593   1.399       .  A
C588        C742   1.467       .  S
C589        C590   1.404       .  A
C589        H594   1.083       .  S
C590        C591   1.405       .  A
C590        C735   1.486       .  S
C591        C592   1.406       .  A
C591        H595   1.084       .  S
C592        C593   1.401       .  A
C592        C722   1.483       .  S
C593        H596   1.084       .  S
O597       Zr609   2.450       .  S
O597        C599   1.289       .  A
O598       Zr635   2.405       .  S
O598        C599   1.284       .  A
C599        C775   1.484       .  S
O600       Zr612   2.426       .  S
O600        C602   1.286       .  A
O601      Zr1756   2.421   1_455  S
O601        C602   1.286       .  A
C602        C752   1.479       .  S
O603       Zr612   2.430       .  S
O603        C605   1.286       .  A
O604       Zr635   2.426   1_545  S
C605        C832   1.464       .  S
O606       Zr609   2.449       .  S
O606       C1728   1.290       .  A
O607       Zr636   2.411       .  S
C608        C684   1.469       .  S
C608       O1726   1.291       .  A
Zr609       O610   2.433       .  S
Zr609      O1731   2.438       .  S
Zr609       O615   2.375   1_565  S
Zr609      O1759   2.371   1_455  S
Zr609      O1761   2.375   1_455  S
O611      Zr1729   2.435       .  S
O611        H652   0.990       .  S
O611       H1776   0.990       .  S
Zr612       O613   2.434       .  S
Zr612       O614   2.436       .  S
Zr612       O616   2.369       .  S
Zr612       O640   2.366       .  S
Zr612       O642   2.370       .  S
O613        H654   0.990       .  S
O613        H657   0.990       .  S
O614        H647   0.990       .  S
O615       Zr635   2.374   1_545  S
O616      Zr1756   2.383   1_455  S
O616        H643   0.966       .  S
O617       Zr629   2.449       .  S
O617        C619   1.290       .  A
O618        C619   1.285       .  A
C619        C762   1.474       .  S
O620       Zr912   2.446   1_554  S
O621       Zr635   2.408       .  S
O621       C2022   1.284   1_455  A
C622        C670   1.471       .  S
C622       O2021   1.285       .  A
O623       Zr632   2.449       .  S
O623        C625   1.289       .  A
O624       Zr636   2.408       .  S
O624        C625   1.284       .  A
C625        C815   1.477       .  S
O626       Zr629   2.442       .  S
O626        C628   1.288       .  A
O627      Zr1755   2.408       .  S
O627        C628   1.283       .  A
C628        C825   1.463       .  S
Zr629       O630   2.439       .  S
Zr629       O631   2.436       .  S
Zr629       O637   2.374       .  S
Zr629       O638   2.370       .  S
Zr629       O641   2.376       .  S
Zr629       O639   2.368       .  S
O630        H650   0.990       .  S
O630        H655   0.990       .  S
O631        H651   0.990       .  S
Zr632       O900   2.449       .  S
Zr632      O2034   2.435       .  S
Zr632      O1762   2.375       .  S
Zr632      O1760   2.370       .  S
O633        H649   0.990       .  S
O634      Zr2032   2.437   1_554  S
O634        H648   0.990   1_655  S
O634       H1778   0.991       .  S
Zr635      O1747   2.413   1_455  S
Zr635      O1758   2.375   1_455  S
Zr635      O1761   2.380   1_455  S
Zr636      O1721   2.423       .  S
Zr636      O1736   2.380       .  S
Zr636      O1762   2.376       .  S
O637        H645   0.967       .  S
O638      Zr1755   2.378       .  S
O639      Zr1729   2.371       .  S
O640      Zr1752   2.370   1_455  S
O640        H644   0.968       .  S
O641      Zr1729   2.378       .  S
O641      Zr1755   2.384       .  S
O641        H646   0.965       .  S
O642      Zr1752   2.373   1_455  S
O642      Zr1756   2.376   1_455  S
H656       O1731   0.990       .  S
H658       O1754   0.990       .  S
O659       Zr671   2.443       .  S
O659        C661   1.288       .  A
O660       Zr697   2.405       .  S
O660        C661   1.284       .  A
C661        C745   1.478       .  S
O662       Zr674   2.444       .  S
O662        C664   1.288       .  A
O663      Zr1818   2.416   1_455  S
O663        C664   1.284       .  A
C664        C725   1.466       .  S
O665       Zr674   2.430       .  S
O665        C667   1.287       .  A
O666       Zr697   2.429   1_545  S
C667        C805   1.483       .  S
O668       Zr671   2.446       .  S
O668       C1790   1.289   1_455  A
O669       Zr698   2.409       .  S
C670       O1788   1.292       .  A
Zr671       O672   2.436       .  S
Zr671      O1793   2.436   1_455  S
Zr671       O677   2.376   1_565  S
Zr671      O1821   2.372   1_455  S
Zr671      O1823   2.376   1_455  S
O673      Zr1791   2.437       .  S
O673        H714   0.990       .  S
O673       H1838   0.990       .  S
Zr674       O675   2.438       .  S
Zr674       O676   2.435       .  S
Zr674       O678   2.364       .  S
Zr674       O702   2.372       .  S
Zr674       O704   2.370       .  S
O675        H716   0.990       .  S
O675        H719   0.990       .  S
O676        H709   0.990       .  S
O677       Zr697   2.381   1_545  S
O678      Zr1818   2.383   1_455  S
O678        H705   0.965       .  S
O679       Zr691   2.438       .  S
O679        C681   1.286       .  A
O680        C681   1.284       .  A
C681        C732   1.466       .  S
O682       Zr694   2.451       .  S
O683       Zr697   2.409       .  S
O683       C1804   1.284       .  A
C684       O1803   1.283       .  A
O685       Zr694   2.450       .  S
O685        C687   1.290       .  A
O686       Zr698   2.407       .  S
O686        C687   1.284       .  A
C687        C782   1.482       .  S
O688       Zr691   2.440       .  S
O688        C690   1.287       .  A
O689      Zr1817   2.424       .  S
O689        C690   1.286       .  A
C690        C795   1.471       .  S
Zr691       O692   2.437       .  S
Zr691       O693   2.436       .  S
Zr691       O699   2.374       .  S
Zr691       O700   2.368       .  S
Zr691       O703   2.378       .  S
Zr691       O701   2.368       .  S
O692        H712   0.990       .  S
O692        H717   0.990       .  S
O693        H713   0.990       .  S
Zr694      O1816   2.437       .  S
Zr694      O1824   2.372       .  S
Zr694      O1822   2.371       .  S
O695        H711   0.990   1_545  S
O696      Zr1814   2.435   1_455  S
O696        H710   0.990       .  S
O696       H1840   0.990   1_455  S
Zr697      O1809   2.426   1_455  S
Zr697      O1820   2.375   1_455  S
Zr697      O1823   2.383   1_455  S
Zr698      O1783   2.415       .  S
Zr698      O1798   2.380       .  S
Zr698      O1824   2.376       .  S
O699        H707   0.967       .  S
O700      Zr1817   2.378       .  S
O701      Zr1791   2.373       .  S
O702      Zr1814   2.368   1_455  S
O702        H706   0.964       .  S
O703      Zr1791   2.375       .  S
O703      Zr1817   2.386       .  S
O703        H708   0.965       .  S
O704      Zr1814   2.378   1_455  S
O704      Zr1818   2.377   1_455  S
H718       O1793   0.990       .  S
H720       O1816   0.990       .  S
C721        C722   1.406       .  A
C721        C726   1.396       .  A
C721        H728   1.083       .  S
C722        C723   1.412       .  A
C723        C724   1.396       .  A
C723        F730   1.357       .  S
C724        C725   1.399       .  A
C724        H729   1.084       .  S
C725        C726   1.403       .  A
C726        F727   1.357       .  S
C731        C732   1.399       .  A
C731        C736   1.397       .  A
C731        H738   1.084       .  S
C732        C733   1.404       .  A
C733        C734   1.397       .  A
C733        F740   1.358       .  S
C734        C735   1.407       .  A
C734        H739   1.083       .  S
C735        C736   1.411       .  A
C736        F737   1.357       .  S
C741        C742   1.400       .  A
C741        C746   1.401       .  A
C741        H748   1.083       .  S
C742        C743   1.401       .  A
C743        C744   1.390       .  A
C743        F750   1.358       .  S
C744        C745   1.406       .  A
C744        H749   1.083       .  S
C745        C746   1.411       .  A
C746        F747   1.357       .  S
C751        C752   1.407       .  A
C751        C756   1.401       .  A
C751        H758   1.083       .  S
C752        C753   1.409       .  A
C753        C754   1.392       .  A
C753        F760   1.358       .  S
C754        C755   1.402       .  A
C754        H759   1.083       .  S
C755        C756   1.408       .  A
C756        F757   1.357       .  S
C761        C762   1.402       .  A
C761        C766   1.397       .  A
C761        H768   1.084       .  S
C762        C763   1.404       .  A
C763        C764   1.399       .  A
C763        F770   1.358       .  S
C764        C765   1.410       .  A
C764        H769   1.082       .  S
C765        C766   1.411       .  A
C766        F767   1.357       .  S
C771        C772   1.403       .  A
C771        C776   1.402       .  A
C771        H778   1.083       .  S
C772        C773   1.404       .  A
C773        C774   1.391       .  A
C773        F780   1.358       .  S
C774        C775   1.407       .  A
C774        H779   1.083       .  S
C775        C776   1.412       .  A
C776        F777   1.357       .  S
C781        C782   1.409       .  A
C781        C786   1.403       .  A
C781        H788   1.083       .  S
C782        C783   1.410       .  A
C783        C784   1.391       .  A
C783        F790   1.358       .  S
C784        C785   1.401       .  A
C784        H789   1.084       .  S
C785        C786   1.405       .  A
C786        F787   1.357       .  S
C791        C792   1.407       .  A
C791        C796   1.399       .  A
C791        H798   1.083       .  S
C792        C793   1.411       .  A
C793        C794   1.398       .  A
C793        F800   1.358       .  S
C794        C795   1.402       .  A
C794        H799   1.084       .  S
C795        C796   1.403       .  A
C796        F797   1.358       .  S
C801        C802   1.401       .  A
C801        C806   1.388       .  A
C801        H808   1.084       .  S
C802        C803   1.407       .  A
C803        C804   1.405       .  A
C803        F810   1.358       .  S
C804        C805   1.410       .  A
C804        H809   1.083       .  S
C805        C806   1.409       .  A
C806        F807   1.358       .  S
C811        C812   1.403       .  A
C811        C816   1.392       .  A
C811        H818   1.084       .  S
C812       C1093   1.406       .  A
C812        C841   1.479       .  S
C813       C1092   1.407   1_554  A
C813       C1094   1.404   1_554  A
C813        F820   1.358       .  S
C814       C1093   1.401       .  A
C814        C815   1.406       .  A
C814       H1099   1.083       .  S
C815        C816   1.408       .  A
C816        F817   1.358       .  S
H819       C1094   1.083   1_554  S
C821        C822   1.407       .  A
C821        C826   1.394       .  A
C821        H828   1.083       .  S
C822       C1103   1.412       .  A
C822        C845   1.484       .  S
C823       C1102   1.411       .  A
C823       C1104   1.397       .  A
C823        F830   1.358   1_556  S
C824       C1103   1.397       .  A
C824        C825   1.401       .  A
C824       H1109   1.084       .  S
C825        C826   1.401       .  A
C826        F827   1.358       .  S
H829       C1104   1.084       .  S
C831        C832   1.400       .  A
C831        C836   1.394       .  A
C831        H838   1.084       .  S
C832        C833   1.403       .  A
C833        C834   1.399       .  A
C833        F840   1.358       .  S
C834        C835   1.407       .  A
C834        H839   1.083       .  S
C835        C836   1.409       .  A
C835        C843   1.482       .  S
C836       F1117   1.358       .  S
F837       C1116   1.358       .  S
C841        C842   1.405       .  A
C841        C846   1.405       .  A
C842        C843   1.404       .  A
C842        H847   1.083       .  S
C843        C844   1.402       .  A
C844        C845   1.400       .  A
C844        H848   1.083       .  S
C845        C846   1.403       .  A
C846        H849   1.084       .  S
C850        C851   1.406       .  A
C850        C855   1.407       .  A
C850       C1065   1.482       .  S
C851        C852   1.408       .  A
C851        H856   1.083       .  S
C852        C853   1.404       .  A
C852       C1072   1.490       .  S
C853        C854   1.402       .  A
C853        H857   1.083       .  S
C854        C855   1.399       .  A
C854       C1082   1.481       .  S
C855        H858   1.084       .  S
C859        C860   1.406       .  A
C859        C864   1.404       .  A
C859       C1052   1.478       .  S
C860        C861   1.408       .  A
C860        H865   1.083       .  S
C861        C862   1.406       .  A
C861       C1045   1.491       .  S
C862        C863   1.401       .  A
C862        H866   1.083       .  S
C863        C864   1.398       .  A
C863       C1035   1.479       .  S
C864        H867   1.084       .  S
C868        C869   1.402       .  A
C868        C873   1.402       .  A
C868       C1022   1.475       .  S
C869        C870   1.403       .  A
C869        H874   1.083       .  S
C870        C871   1.403       .  A
C870       C1015   1.488       .  S
C871        C872   1.406       .  A
C871        H875   1.084       .  S
C872        C873   1.404       .  A
C872       C1002   1.482       .  S
C873        H876   1.084       .  S
O877       Zr889   2.459       .  S
O877        C879   1.291       .  A
O878       Zr915   2.401       .  S
O878        C879   1.284       .  A
C879       C1055   1.485       .  S
O880       Zr892   2.423       .  S
O880        C882   1.285       .  A
O881      Zr2036   2.426   1_455  S
O881        C882   1.286       .  A
C882       C1032   1.479       .  S
O883       Zr892   2.431       .  S
O883        C885   1.286       .  A
O884       Zr915   2.425   1_545  S
C885       C1112   1.464       .  S
O886       Zr889   2.449       .  S
O886       C2008   1.290       .  A
O887       Zr916   2.411       .  S
C888        C964   1.471       .  S
C888       O2006   1.291       .  A
Zr889       O890   2.435       .  S
Zr889      O2011   2.435   1_455  S
Zr889       O895   2.378   1_565  S
Zr889      O2039   2.370   1_455  S
Zr889      O2041   2.373   1_455  S
O891      Zr2009   2.435       .  S
O891        H932   0.990       .  S
O891       H2056   0.990       .  S
Zr892       O893   2.436       .  S
Zr892       O894   2.432       .  S
Zr892       O896   2.368       .  S
Zr892       O920   2.360       .  S
Zr892       O922   2.373       .  S
O893        H934   0.990       .  S
O893        H937   0.990       .  S
O894        H927   0.990       .  S
O895       Zr915   2.375   1_545  S
O896      Zr2036   2.381   1_455  S
O896        H923   0.966       .  S
O897       Zr909   2.441       .  S
O897        C899   1.288       .  A
O898        C899   1.285       .  A
C899       C1042   1.472       .  S
O901       Zr915   2.405   1_554  S
O901       C1742   1.284   1_455  A
C902        C950   1.466       .  S
C902       O1741   1.284       .  A
O903       Zr912   2.445       .  S
O903        C905   1.288       .  A
O904       Zr916   2.422       .  S
O904        C905   1.287       .  A
C905       C1095   1.482       .  S
O906       Zr909   2.444       .  S
O906        C908   1.288       .  A
O907      Zr2035   2.414       .  S
O907        C908   1.284       .  A
C908       C1105   1.466       .  S
Zr909       O910   2.438       .  S
Zr909       O911   2.437       .  S
Zr909       O917   2.372       .  S
Zr909       O918   2.370       .  S
Zr909       O921   2.373       .  S
Zr909       O919   2.370       .  S
O910        H930   0.990       .  S
O910        H935   0.990       .  S
O911        H931   0.990       .  S
Zr912      O1754   2.436   1_556  S
Zr912      O2042   2.376       .  S
Zr912      O2040   2.370       .  S
O913        H929   0.990       .  S
O914      Zr1752   2.436       .  S
O914        H928   0.990   1_655  S
O914       H2058   0.990       .  S
Zr915      O2027   2.417   1_455  S
Zr915      O2038   2.377   1_455  S
Zr915      O2041   2.381   1_455  S
Zr916      O2001   2.427       .  S
Zr916      O2016   2.384       .  S
Zr916      O2042   2.375       .  S
O917        H925   0.966       .  S
O918      Zr2035   2.377       .  S
O919      Zr2009   2.372       .  S
O920      Zr2032   2.372   1_455  S
O920        H924   0.968       .  S
O921      Zr2009   2.378       .  S
O921      Zr2035   2.386       .  S
O921        H926   0.965       .  S
O922      Zr2032   2.373   1_455  S
O922      Zr2036   2.375   1_455  S
H936       O2011   0.990   1_455  S
H938       O2034   0.990       .  S
O939       Zr951   2.455       .  S
O939        C941   1.290       .  A
O940       Zr977   2.407       .  S
O940        C941   1.285       .  A
C941       C1025   1.484       .  S
O942       Zr954   2.431       .  S
O942        C944   1.286       .  A
O943      Zr2098   2.413   1_455  S
O943        C944   1.283       .  A
C944       C1005   1.460       .  S
O945       Zr954   2.427       .  S
O945        C947   1.286       .  A
O946       Zr977   2.431   1_545  S
C947       C1085   1.484       .  S
O948       Zr951   2.450       .  S
O948       C2070   1.290   1_455  A
O949       Zr978   2.411       .  S
C950       O2068   1.290       .  A
Zr951       O952   2.436       .  S
Zr951      O2073   2.433   1_455  S
Zr951       O957   2.377   1_565  S
Zr951      O2101   2.372   1_455  S
Zr951      O2103   2.378   1_455  S
O953      Zr2071   2.434       .  S
O953        H994   0.990       .  S
O953       H2118   0.990       .  S
Zr954       O955   2.439       .  S
Zr954       O956   2.436       .  S
Zr954       O958   2.365       .  S
Zr954       O982   2.368       .  S
Zr954       O984   2.371       .  S
O955        H996   0.991       .  S
O955        H999   0.990       .  S
O956        H989   0.990       .  S
O957       Zr977   2.381   1_545  S
O958      Zr2098   2.382   1_455  S
O958        H985   0.965       .  S
O959       Zr971   2.431       .  S
O959        C961   1.285       .  A
O960        C961   1.286       .  A
C961       C1012   1.468       .  S
O962       Zr974   2.454       .  S
O963       Zr977   2.405       .  S
O963       C2084   1.283       .  A
C964       O2083   1.284       .  A
O965       Zr974   2.460       .  S
O965        C967   1.291       .  A
O966       Zr978   2.407       .  S
O966        C967   1.284       .  A
C967       C1062   1.486       .  S
O968       Zr971   2.437       .  S
O968        C970   1.287       .  A
O969      Zr2097   2.433       .  S
O969        C970   1.287       .  A
C970       C1075   1.475       .  S
Zr971       O972   2.435       .  S
Zr971       O973   2.434       .  S
Zr971       O979   2.371       .  S
Zr971       O980   2.369       .  S
Zr971       O983   2.370       .  S
Zr971       O981   2.369       .  S
O972        H992   0.990       .  S
O972        H997   0.990       .  S
O973        H993   0.990       .  S
Zr974      O2096   2.436       .  S
Zr974      O2104   2.376       .  S
Zr974      O2102   2.376       .  S
O975        H991   0.990   1_545  S
O976      Zr2094   2.435   1_455  S
O976        H990   0.990       .  S
O976       H2120   0.990   1_455  S
Zr977      O2089   2.431   1_455  S
Zr977      O2100   2.377   1_455  S
Zr977      O2103   2.384   1_455  S
Zr978      O2063   2.414       .  S
Zr978      O2078   2.382       .  S
Zr978      O2104   2.379       .  S
O979        H987   0.967       .  S
O980      Zr2097   2.380       .  S
O981      Zr2071   2.371       .  S
O982      Zr2094   2.373   1_455  S
O982        H986   0.965       .  S
O983      Zr2071   2.376       .  S
O983      Zr2097   2.383       .  S
O983        H988   0.966       .  S
O984      Zr2094   2.369   1_455  S
O984      Zr2098   2.376   1_455  S
H998       O2073   0.990   1_455  S
H1000      O2096   0.990       .  S
C1001      C1002   1.406       .  A
C1001      C1006   1.393       .  A
C1001      H1008   1.083       .  S
C1002      C1003   1.411       .  A
C1003      C1004   1.398       .  A
C1003      F1010   1.357       .  S
C1004      C1005   1.399       .  A
C1004      H1009   1.084       .  S
C1005      C1006   1.401       .  A
C1006      F1007   1.358       .  S
C1011      C1012   1.399       .  A
C1011      C1016   1.396       .  A
C1011      H1018   1.084       .  S
C1012      C1013   1.404       .  A
C1013      C1014   1.398       .  A
C1013      F1020   1.358       .  S
C1014      C1015   1.408       .  A
C1014      H1019   1.083       .  S
C1015      C1016   1.412       .  A
C1016      F1017   1.357       .  S
C1021      C1022   1.403       .  A
C1021      C1026   1.403       .  A
C1021      H1028   1.083       .  S
C1022      C1023   1.403       .  A
C1023      C1024   1.392       .  A
C1023      F1030   1.358       .  S
C1024      C1025   1.407       .  A
C1024      H1029   1.083       .  S
C1025      C1026   1.411       .  A
C1026      F1027   1.357       .  S
C1031      C1032   1.407       .  A
C1031      C1036   1.401       .  A
C1031      H1038   1.083       .  S
C1032      C1033   1.409       .  A
C1033      C1034   1.391       .  A
C1033      F1040   1.358       .  S
C1034      C1035   1.402       .  A
C1034      H1039   1.084       .  S
C1035      C1036   1.406       .  A
C1036      F1037   1.357       .  S
C1041      C1042   1.402       .  A
C1041      C1046   1.396       .  A
C1041      H1048   1.084       .  S
C1042      C1043   1.404       .  A
C1043      C1044   1.399       .  A
C1043      F1050   1.358       .  S
C1044      C1045   1.409       .  A
C1044      H1049   1.082       .  S
C1045      C1046   1.411       .  A
C1046      F1047   1.357       .  S
C1051      C1052   1.404       .  A
C1051      C1056   1.403       .  A
C1051      H1058   1.083       .  S
C1052      C1053   1.404       .  A
C1053      C1054   1.391       .  A
C1053      F1060   1.358       .  S
C1054      C1055   1.408       .  A
C1054      H1059   1.083       .  S
C1055      C1056   1.411       .  A
C1056      F1057   1.357       .  S
C1061      C1062   1.409       .  A
C1061      C1066   1.405       .  A
C1061      H1068   1.083       .  S
C1062      C1063   1.411       .  A
C1063      C1064   1.392       .  A
C1063      F1070   1.358       .  S
C1064      C1065   1.401       .  A
C1064      H1069   1.084       .  S
C1065      C1066   1.407       .  A
C1066      F1067   1.357       .  S
C1071      C1072   1.407       .  A
C1071      C1076   1.398       .  A
C1071      H1078   1.083       .  S
C1072      C1073   1.411       .  A
C1073      C1074   1.399       .  A
C1073      F1080   1.358       .  S
C1074      C1075   1.403       .  A
C1074      H1079   1.084       .  S
C1075      C1076   1.403       .  A
C1076      F1077   1.356       .  S
C1081      C1082   1.402       .  A
C1081      C1086   1.390       .  A
C1081      H1088   1.084       .  S
C1082      C1083   1.407       .  A
C1083      C1084   1.404       .  A
C1083      F1090   1.357       .  S
C1084      C1085   1.409       .  A
C1084      H1089   1.083       .  S
C1085      C1086   1.410       .  A
C1086      F1087   1.358       .  S
C1091      C1092   1.402       .  A
C1091      C1096   1.392       .  A
C1091      H1098   1.084       .  S
C1093      F1100   1.357       .  S
C1094      C1095   1.409       .  A
C1095      C1096   1.407       .  A
C1096      F1097   1.358       .  S
C1101      C1102   1.408       .  A
C1101      C1106   1.396       .  A
C1101      H1108   1.083       .  S
C1103      F1110   1.358       .  S
C1104      C1105   1.401       .  A
C1105      C1106   1.402       .  A
C1106      F1107   1.358       .  S
C1111      C1112   1.401   1_554  A
C1111      C1116   1.395       .  A
C1111      H1118   1.083       .  S
C1112      C1113   1.402       .  A
C1113      C1114   1.398       .  A
C1113      F1120   1.358       .  S
C1114      C1115   1.406       .  A
C1114      H1119   1.083       .  S
C1115      C1116   1.409   1_556  A
C1121      C1122   1.405       .  A
C1121      C1126   1.402       .  A
C1121      C1652   1.477       .  S
C1122      C1123   1.405       .  A
C1122      H1127   1.083       .  S
C1123      C1124   1.404       .  A
C1123      C1675   1.485       .  S
C1124      C1125   1.402       .  A
C1124      H1128   1.083       .  S
C1125      C1126   1.403       .  A
C1125      C1662   1.486       .  S
C1126      H1129   1.083       .  S
C1130      C1131   1.408       .  A
C1130      C1135   1.406       .  A
C1130      C1345   1.483       .  S
C1131      C1132   1.411       .  A
C1131      H1136   1.083       .  S
C1132      C1133   1.404       .  A
C1132      C1352   1.492       .  S
C1133      C1134   1.402       .  A
C1133      H1137   1.083       .  S
C1134      C1135   1.398       .  A
C1134      C1362   1.479       .  S
C1135      H1138   1.084       .  S
C1139      C1140   1.404       .  A
C1139      C1144   1.403       .  A
C1139      C1332   1.476       .  S
C1140      C1141   1.407       .  A
C1140      H1145   1.083       .  S
C1141      C1142   1.408       .  A
C1141      C1325   1.488       .  S
C1142      C1143   1.404       .  A
C1142      H1146   1.083       .  S
C1143      C1144   1.397       .  A
C1143      C1315   1.481       .  S
C1144      H1147   1.084       .  S
C1148      C1149   1.400       .  A
C1148      C1153   1.399       .  A
C1148      C1302   1.465       .  S
C1149      C1150   1.402       .  A
C1149      H1154   1.084       .  S
C1150      C1151   1.402       .  A
C1150      C1295   1.480       .  S
C1151      C1152   1.405       .  A
C1151      H1155   1.084       .  S
C1152      C1153   1.401       .  A
C1152      C1282   1.481       .  S
C1153      H1156   1.084       .  S
O1157     Zr1169   2.453       .  S
O1157      C1159   1.290       .  A
O1158     Zr1195   2.410       .  S
O1158      C1159   1.285       .  A
C1159      C1335   1.484       .  S
O1160     Zr1172   2.431       .  S
O1160      C1162   1.286       .  A
O1161      C1162   1.287       .  A
C1162      C1312   1.482       .  S
O1163     Zr1172   2.435       .  S
O1163      C1165   1.287       .  A
O1164     Zr1195   2.424       .  S
O1164      C1725   1.285       .  A
C1165      C1392   1.468       .  S
C1165      O1724   1.285       .  A
O1166     Zr1169   2.452       .  S
O1167     Zr1196   2.408       .  S
O1167      C1728   1.284   1_645  A
C1168      C1244   1.471       .  S
C1168      O1727   1.284   1_455  A
Zr1169     O1170   2.436       .  S
Zr1169     O1175   2.375       .  S
Zr1169     O1736   2.376       .  S
O1170      H1773   0.990       .  S
O1171      H1212   0.990       .  S
Zr1172     O1173   2.437       .  S
Zr1172     O1174   2.434       .  S
Zr1172     O1176   2.368       .  S
Zr1172     O1735   2.369   1_545  S
Zr1172     O1200   2.365       .  S
Zr1172     O1202   2.373       .  S
O1173      H1214   0.990       .  S
O1173      H1217   0.990       .  S
O1174      H1207   0.990       .  S
O1175     Zr1732   2.367       .  S
O1175     Zr1195   2.375       .  S
O1176     Zr1729   2.377   1_545  S
O1176      H1203   0.966       .  S
O1177     Zr1189   2.442       .  S
O1177      C1179   1.288       .  A
O1178     Zr1756   2.418       .  S
O1178      C1179   1.284       .  A
C1179      C1322   1.470       .  S
O1180     Zr1472   2.453   1_554  S
O1180      C1742   1.291   1_545  A
O1181     Zr1195   2.413       .  S
C1182      C1230   1.464       .  S
C1182      O1740   1.289       .  A
O1183     Zr1192   2.446       .  S
O1183      C1185   1.289       .  A
O1184     Zr1196   2.413       .  S
O1184      C1185   1.285       .  A
C1185      C1375   1.479       .  S
O1186     Zr1189   2.440       .  S
O1186      C1188   1.287       .  A
O1187      C1188   1.284       .  A
C1188      C1385   1.464       .  S
Zr1189     O1190   2.436       .  S
Zr1189     O1191   2.435       .  S
Zr1189     O1197   2.370       .  S
Zr1189     O1198   2.370       .  S
Zr1189     O1201   2.374       .  S
Zr1189     O1199   2.369       .  S
O1190      H1210   0.990       .  S
O1190      H1215   0.990       .  S
O1191      H1211   0.990       .  S
Zr1192     O1460   2.450   1_545  S
Zr1192     O2033   2.435   1_545  S
Zr1192     O1758   2.366   1_545  S
Zr1192     O1757   2.376   1_545  S
O1193     Zr2032   2.433   1_554  S
O1193      H1209   0.990       .  S
O1194      H1208   0.990       .  S
Zr1195     O1760   2.380       .  S
Zr1196     O1738   2.420   1_545  S
Zr1196     O1757   2.385   1_545  S
Zr1196     O1759   2.378   1_545  S
O1197     Zr1752   2.378       .  S
O1197     Zr1756   2.380       .  S
O1197      H1205   0.966       .  S
O1198     Zr1752   2.369       .  S
O1199     Zr1756   2.380       .  S
O1200     Zr1755   2.378   1_545  S
O1200      H1204   0.968       .  S
O1201      H1206   0.966       .  S
H1213      O1730   0.990   1_545  S
O1219     Zr1231   2.438       .  S
O1219      C1221   1.287       .  A
O1220     Zr1257   2.409       .  S
O1220      C1221   1.285       .  A
C1221      C1305   1.478       .  S
O1222     Zr1234   2.436       .  S
O1222      C1224   1.287       .  A
O1223      C1224   1.283       .  A
C1224      C1285   1.461       .  S
O1225     Zr1234   2.426       .  S
O1225      C1227   1.286       .  A
O1226     Zr1257   2.430       .  S
O1226      C1787   1.287       .  A
C1227      C1365   1.481       .  S
C1227      O1786   1.287       .  A
O1228     Zr1231   2.441       .  S
O1229     Zr1258   2.417       .  S
O1229      C1790   1.285   1_545  A
C1230      O1789   1.285       .  A
Zr1231     O1232   2.435       .  S
Zr1231     O1237   2.375       .  S
Zr1231     O1798   2.364       .  S
O1232      H1835   0.990       .  S
O1233      H1274   0.990       .  S
Zr1234     O1235   2.439       .  S
Zr1234     O1236   2.434       .  S
Zr1234     O1238   2.361       .  S
Zr1234     O1797   2.368   1_545  S
Zr1234     O1262   2.375       .  S
Zr1234     O1264   2.374       .  S
O1235      H1276   0.990       .  S
O1235      H1279   0.990       .  S
O1236      H1269   0.990       .  S
O1237     Zr1794   2.371       .  S
O1237     Zr1257   2.380       .  S
O1238     Zr1791   2.371   1_545  S
O1238      H1265   0.965       .  S
O1239     Zr1251   2.441       .  S
O1239      C1241   1.287       .  A
O1240     Zr1818   2.418       .  S
O1240      C1241   1.284       .  A
C1241      C1292   1.464       .  S
O1242     Zr1254   2.450       .  S
O1242      C1804   1.290   1_645  A
O1243     Zr1257   2.411       .  S
C1244      O1802   1.291   1_455  A
O1245     Zr1254   2.456       .  S
O1245      C1247   1.291       .  A
O1246     Zr1258   2.412       .  S
O1246      C1247   1.285       .  A
C1247      C1342   1.485       .  S
O1248     Zr1251   2.439       .  S
O1248      C1250   1.287       .  A
O1249      C1250   1.287       .  A
C1250      C1355   1.473       .  S
Zr1251     O1252   2.434       .  S
Zr1251     O1253   2.434       .  S
Zr1251     O1259   2.369       .  S
Zr1251     O1260   2.367       .  S
Zr1251     O1263   2.374       .  S
Zr1251     O1261   2.369       .  S
O1252      H1272   0.990       .  S
O1252      H1277   0.990       .  S
O1253      H1273   0.990       .  S
Zr1254     O1815   2.434   1_545  S
Zr1254     O1820   2.370   1_545  S
Zr1254     O1819   2.374   1_545  S
O1255     Zr1814   2.434       .  S
O1255      H1271   0.990       .  S
O1256      H1270   0.990       .  S
Zr1257     O1822   2.381       .  S
Zr1258     O1800   2.418   1_545  S
Zr1258     O1819   2.376   1_545  S
Zr1258     O1821   2.375   1_545  S
O1259     Zr1814   2.378       .  S
O1259     Zr1818   2.381       .  S
O1259      H1267   0.967       .  S
O1260     Zr1814   2.368       .  S
O1261     Zr1818   2.376       .  S
O1262     Zr1817   2.386   1_545  S
O1262      H1266   0.965       .  S
O1263      H1268   0.966       .  S
H1275      O1792   0.990   1_545  S
C1281      C1282   1.405       .  A
C1281      C1286   1.393       .  A
C1281      H1288   1.083       .  S
C1282      C1283   1.412       .  A
C1283      C1284   1.396       .  A
C1283      F1290   1.358       .  S
C1284      C1285   1.400       .  A
C1284      H1289   1.084       .  S
C1285      C1286   1.402       .  A
C1286      F1287   1.357       .  S
C1291      C1292   1.400       .  A
C1291      C1296   1.397       .  A
C1291      H1298   1.084       .  S
C1292      C1293   1.403       .  A
C1293      C1294   1.397       .  A
C1293      F1300   1.358       .  S
C1294      C1295   1.405       .  A
C1294      H1299   1.083       .  S
C1295      C1296   1.409       .  A
C1296      F1297   1.358       .  S
C1301      C1302   1.400       .  A
C1301      C1306   1.400       .  A
C1301      H1308   1.083       .  S
C1302      C1303   1.400       .  A
C1303      C1304   1.389       .  A
C1303      F1310   1.358       .  S
C1304      C1305   1.406       .  A
C1304      H1309   1.083       .  S
C1305      C1306   1.411       .  A
C1306      F1307   1.357       .  S
C1311      C1312   1.408       .  A
C1311      C1316   1.402       .  A
C1311      H1318   1.083       .  S
C1312      C1313   1.409       .  A
C1313      C1314   1.393       .  A
C1313      F1320   1.358       .  S
C1314      C1315   1.402       .  A
C1314      H1319   1.083       .  S
C1315      C1316   1.407       .  A
C1316      F1317   1.357       .  S
C1321      C1322   1.402       .  A
C1321      C1326   1.396       .  A
C1321      H1328   1.084       .  S
C1322      C1323   1.404       .  A
C1323      C1324   1.398       .  A
C1323      F1330   1.358       .  S
C1324      C1325   1.408       .  A
C1324      H1329   1.083       .  S
C1325      C1326   1.409       .  A
C1326      F1327   1.357       .  S
C1331      C1332   1.403       .  A
C1331      C1336   1.403       .  A
C1331      H1338   1.083       .  S
C1332      C1333   1.404       .  A
C1333      C1334   1.390       .  A
C1333      F1340   1.359       .  S
C1334      C1335   1.406       .  A
C1334      H1339   1.083       .  S
C1335      C1336   1.412       .  A
C1336      F1337   1.357       .  S
C1341      C1342   1.408       .  A
C1341      C1346   1.405       .  A
C1341      H1348   1.083       .  S
C1342      C1343   1.410       .  A
C1343      C1344   1.393       .  A
C1343      F1350   1.358       .  S
C1344      C1345   1.403       .  A
C1344      H1349   1.084       .  S
C1345      C1346   1.406       .  A
C1346      F1347   1.357       .  S
C1351      C1352   1.407       .  A
C1351      C1356   1.398       .  A
C1351      H1358   1.083       .  S
C1352      C1353   1.413       .  A
C1353      C1354   1.400       .  A
C1353      F1360   1.358       .  S
C1354      C1355   1.403       .  A
C1354      H1359   1.084       .  S
C1355      C1356   1.403       .  A
C1356      F1357   1.357       .  S
C1361      C1362   1.401       .  A
C1361      C1366   1.389       .  A
C1361      H1368   1.084       .  S
C1362      C1363   1.407       .  A
C1363      C1364   1.404       .  A
C1363      F1370   1.357       .  S
C1364      C1365   1.408       .  A
C1364      H1369   1.083       .  S
C1365      C1366   1.409       .  A
C1366      F1367   1.358       .  S
C1371      C1372   1.403       .  A
C1371      C1376   1.393       .  A
C1371      H1378   1.084       .  S
C1372      C1653   1.404       .  A
C1372      C1401   1.478       .  S
C1373      C1652   1.404   1_554  A
C1373      C1654   1.402   1_554  A
C1373      F1380   1.357       .  S
C1374      C1653   1.401       .  A
C1374      C1375   1.407       .  A
C1374      H1659   1.083       .  S
C1375      C1376   1.409       .  A
C1376      F1377   1.358       .  S
H1379      C1654   1.083   1_554  S
C1381      C1382   1.407       .  A
C1381      C1386   1.394       .  A
C1381      H1388   1.083       .  S
C1382      C1663   1.412       .  A
C1382      C1405   1.487       .  S
C1383      C1662   1.411   1_554  A
C1383      C1664   1.397   1_554  A
C1383      F1390   1.358       .  S
C1384      C1663   1.399       .  A
C1384      C1385   1.401       .  A
C1384      H1669   1.084       .  S
C1385      C1386   1.400       .  A
C1386      F1387   1.358       .  S
H1389      C1664   1.084   1_554  S
C1391      C1392   1.401       .  A
C1391      C1396   1.395       .  A
C1391      H1398   1.084       .  S
C1392      C1393   1.404       .  A
C1393      C1394   1.401       .  A
C1393      F1400   1.358       .  S
C1394      C1395   1.408       .  A
C1394      H1399   1.083       .  S
C1395      C1396   1.408       .  A
C1395      C1403   1.486       .  S
C1396      F1677   1.358       .  S
F1397      C1676   1.358       .  S
C1401      C1402   1.405       .  A
C1401      C1406   1.403       .  A
C1402      C1403   1.405       .  A
C1402      H1407   1.083       .  S
C1403      C1404   1.405       .  A
C1404      C1405   1.402       .  A
C1404      H1408   1.083       .  S
C1405      C1406   1.404       .  A
C1406      H1409   1.084       .  S
C1410      C1411   1.407       .  A
C1410      C1415   1.404       .  A
C1410      C1625   1.480       .  S
C1411      C1412   1.410       .  A
C1411      H1416   1.083       .  S
C1412      C1413   1.405       .  A
C1412      C1632   1.493       .  S
C1413      C1414   1.404       .  A
C1413      H1417   1.083       .  S
C1414      C1415   1.398       .  A
C1414      C1642   1.481       .  S
C1415      H1418   1.084       .  S
C1419      C1420   1.405       .  A
C1419      C1424   1.401       .  A
C1419      C1612   1.474       .  S
C1420      C1421   1.408       .  A
C1420      H1425   1.083       .  S
C1421      C1422   1.406       .  A
C1421      C1605   1.488       .  S
C1422      C1423   1.399       .  A
C1422      H1426   1.083       .  S
C1423      C1424   1.395       .  A
C1423      C1595   1.474       .  S
C1424      H1427   1.084       .  S
C1428      C1429   1.399       .  A
C1428      C1433   1.400       .  A
C1428      C1582   1.465       .  S
C1429      C1430   1.401       .  A
C1429      H1434   1.083       .  S
C1430      C1431   1.403       .  A
C1430      C1575   1.485       .  S
C1431      C1432   1.404       .  A
C1431      H1435   1.084       .  S
C1432      C1433   1.402       .  A
C1432      C1562   1.479       .  S
C1433      H1436   1.084       .  S
O1437     Zr1449   2.447       .  S
O1437      C1439   1.288       .  A
O1438     Zr1475   2.404       .  S
O1438      C1439   1.284       .  A
C1439      C1615   1.480       .  S
O1440     Zr1452   2.420       .  S
O1440      C1442   1.284       .  A
O1441      C1442   1.286       .  A
C1442      C1592   1.475       .  S
O1443     Zr1452   2.436       .  S
O1443      C1445   1.287       .  A
O1444     Zr1475   2.429       .  S
O1444      C2005   1.286       .  A
C1445      C1672   1.469       .  S
C1445      O2004   1.286       .  A
O1446     Zr1449   2.448       .  S
O1447     Zr1476   2.407       .  S
O1447      C2008   1.283   1_645  A
C1448      C1524   1.465       .  S
C1448      O2007   1.282   1_455  A
Zr1449     O1450   2.435       .  S
Zr1449     O1455   2.376       .  S
Zr1449     O2016   2.377       .  S
O1450      H2053   0.990       .  S
O1451      H1492   0.990       .  S
Zr1452     O1453   2.436       .  S
Zr1452     O1454   2.435       .  S
Zr1452     O1456   2.371       .  S
Zr1452     O2015   2.368       .  S
Zr1452     O1480   2.363       .  S
Zr1452     O1482   2.370       .  S
O1453      H1494   0.990       .  S
O1453      H1497   0.990       .  S
O1454      H1487   0.990       .  S
O1455     Zr2012   2.372       .  S
O1455     Zr1475   2.376       .  S
O1456     Zr2009   2.372   1_545  S
O1456      H1483   0.966       .  S
O1457     Zr1469   2.437       .  S
O1457      C1459   1.288       .  A
O1458     Zr2036   2.420       .  S
O1458      C1459   1.285       .  A
C1459      C1602   1.470       .  S
O1460      C2022   1.290       .  A
O1461     Zr1475   2.405   1_554  S
C1462      C1510   1.472       .  S
C1462      O2020   1.290       .  A
O1463     Zr1472   2.447       .  S
O1463      C1465   1.289       .  A
O1464     Zr1476   2.416       .  S
O1464      C1465   1.286       .  A
C1465      C1655   1.481       .  S
O1466     Zr1469   2.445       .  S
O1466      C1468   1.288       .  A
O1467      C1468   1.282       .  A
C1468      C1665   1.464       .  S
Zr1469     O1470   2.437       .  S
Zr1469     O1471   2.435       .  S
Zr1469     O1477   2.376       .  S
Zr1469     O1478   2.365       .  S
Zr1469     O1481   2.374       .  S
Zr1469     O1479   2.372       .  S
O1470      H1490   0.990       .  S
O1470      H1495   0.990       .  S
O1471      H1491   0.990       .  S
Zr1472     O1753   2.436   1_546  S
Zr1472     O2038   2.369   1_545  S
Zr1472     O2037   2.378   1_545  S
O1473     Zr1752   2.435       .  S
O1473      H1489   0.990       .  S
O1474      H1488   0.990       .  S
Zr1475     O2040   2.378       .  S
Zr1476     O2018   2.413   1_545  S
Zr1476     O2037   2.385   1_545  S
Zr1476     O2039   2.382   1_545  S
O1477     Zr2032   2.371       .  S
O1477     Zr2036   2.383       .  S
O1477      H1485   0.966       .  S
O1478     Zr2032   2.370       .  S
O1479     Zr2036   2.379       .  S
O1480     Zr2035   2.374   1_545  S
O1480      H1484   0.968       .  S
O1481      H1486   0.965       .  S
H1493      O2010   0.990   1_545  S
O1499     Zr1511   2.440       .  S
O1499      C1501   1.287       .  A
O1500     Zr1537   2.411       .  S
O1500      C1501   1.285       .  A
C1501      C1585   1.481       .  S
O1502     Zr1514   2.438       .  S
O1502      C1504   1.287       .  A
O1503      C1504   1.283       .  A
C1504      C1565   1.461       .  S
O1505     Zr1514   2.426       .  S
O1505      C1507   1.286       .  A
O1506     Zr1537   2.433       .  S
O1506      C2067   1.287       .  A
C1507      C1645   1.481       .  S
C1507      O2066   1.287       .  A
O1508     Zr1511   2.450       .  S
O1509     Zr1538   2.409   1_565  S
O1509      C2070   1.283       .  A
C1510      O2069   1.285       .  A
Zr1511     O1512   2.436       .  S
Zr1511     O1517   2.377       .  S
Zr1511     O2078   2.368       .  S
O1512      H2115   0.990       .  S
O1513      H1554   0.990       .  S
Zr1514     O1515   2.440       .  S
Zr1514     O1516   2.435       .  S
Zr1514     O1518   2.364       .  S
Zr1514     O2077   2.371       .  S
Zr1514     O1542   2.372       .  S
Zr1514     O1544   2.374       .  S
O1515      H1556   0.990       .  S
O1515      H1559   0.990       .  S
O1516      H1549   0.990       .  S
O1517     Zr2074   2.369       .  S
O1517     Zr1537   2.378       .  S
O1518     Zr2071   2.368   1_545  S
O1518      H1545   0.965       .  S
O1519     Zr1531   2.447       .  S
O1519      C1521   1.288       .  A
O1520     Zr2098   2.414       .  S
O1520      C1521   1.284       .  A
C1521      C1572   1.468       .  S
O1522     Zr1534   2.449       .  S
O1522      C2084   1.290   1_645  A
O1523     Zr1537   2.410       .  S
C1524      O2082   1.290   1_455  A
O1525     Zr1534   2.452       .  S
O1525      C1527   1.290       .  A
O1526     Zr1538   2.407       .  S
O1526      C1527   1.284       .  A
C1527      C1622   1.482       .  S
O1528     Zr1531   2.447       .  S
O1528      C1530   1.289       .  A
O1529      C1530   1.287       .  A
C1530      C1635   1.476       .  S
Zr1531     O1532   2.431       .  S
Zr1531     O1533   2.437       .  S
Zr1531     O1539   2.372       .  S
Zr1531     O1540   2.368       .  S
Zr1531     O1543   2.376       .  S
Zr1531     O1541   2.370       .  S
O1532      H1552   0.990       .  S
O1532      H1557   0.990       .  S
O1533      H1553   0.990       .  S
Zr1534     O2095   2.436       .  S
Zr1534     O2100   2.371   1_545  S
Zr1534     O2099   2.379   1_545  S
O1535     Zr2094   2.434       .  S
O1535      H1551   0.990       .  S
O1536      H1550   0.990       .  S
Zr1537     O2102   2.384       .  S
Zr1538     O2080   2.410   1_545  S
Zr1538     O2099   2.382   1_545  S
Zr1538     O2101   2.379   1_545  S
O1539     Zr2094   2.379       .  S
O1539     Zr2098   2.381       .  S
O1539      H1547   0.967       .  S
O1540     Zr2094   2.373       .  S
O1541     Zr2098   2.379       .  S
O1542     Zr2097   2.387   1_545  S
O1542      H1546   0.965       .  S
O1543      H1548   0.965       .  S
H1555      O2072   0.990   1_545  S
C1561      C1562   1.405       .  A
C1561      C1566   1.393       .  A
C1561      H1568   1.083       .  S
C1562      C1563   1.410       .  A
C1563      C1564   1.397       .  A
C1563      F1570   1.358       .  S
C1564      C1565   1.400       .  A
C1564      H1569   1.084       .  S
C1565      C1566   1.401       .  A
C1566      F1567   1.358       .  S
C1571      C1572   1.400       .  A
C1571      C1576   1.396       .  A
C1571      H1578   1.084       .  S
C1572      C1573   1.403       .  A
C1573      C1574   1.397       .  A
C1573      F1580   1.357       .  S
C1574      C1575   1.407       .  A
C1574      H1579   1.083       .  S
C1575      C1576   1.412       .  A
C1576      F1577   1.358       .  S
C1581      C1582   1.399       .  A
C1581      C1586   1.400       .  A
C1581      H1588   1.083       .  S
C1582      C1583   1.401       .  A
C1583      C1584   1.389       .  A
C1583      F1590   1.358       .  S
C1584      C1585   1.407       .  A
C1584      H1589   1.083       .  S
C1585      C1586   1.413       .  A
C1586      F1587   1.357       .  S
C1591      C1592   1.407       .  A
C1591      C1596   1.398       .  A
C1591      H1598   1.083       .  S
C1592      C1593   1.409       .  A
C1593      C1594   1.390       .  A
C1593      F1600   1.358       .  S
C1594      C1595   1.402       .  A
C1594      H1599   1.084       .  S
C1595      C1596   1.405       .  A
C1596      F1597   1.357       .  S
C1601      C1602   1.401       .  A
C1601      C1606   1.394       .  A
C1601      H1608   1.084       .  S
C1602      C1603   1.404       .  A
C1603      C1604   1.399       .  A
C1603      F1610   1.358       .  S
C1604      C1605   1.409       .  A
C1604      H1609   1.082       .  S
C1605      C1606   1.410       .  A
C1606      F1607   1.358       .  S
C1611      C1612   1.402       .  A
C1611      C1616   1.401       .  A
C1611      H1618   1.083       .  S
C1612      C1613   1.405       .  A
C1613      C1614   1.389       .  A
C1613      F1620   1.359       .  S
C1614      C1615   1.405       .  A
C1614      H1619   1.083       .  S
C1615      C1616   1.411       .  A
C1616      F1617   1.357       .  S
C1621      C1622   1.408       .  A
C1621      C1626   1.402       .  A
C1621      H1628   1.083       .  S
C1622      C1623   1.410       .  A
C1623      C1624   1.393       .  A
C1623      F1630   1.358       .  S
C1624      C1625   1.403       .  A
C1624      H1629   1.084       .  S
C1625      C1626   1.405       .  A
C1626      F1627   1.357       .  S
C1631      C1632   1.408       .  A
C1631      C1636   1.399       .  A
C1631      H1638   1.082       .  S
C1632      C1633   1.412       .  A
C1633      C1634   1.401       .  A
C1633      F1640   1.358       .  S
C1634      C1635   1.404       .  A
C1634      H1639   1.084       .  S
C1635      C1636   1.403       .  A
C1636      F1637   1.357       .  S
C1641      C1642   1.401       .  A
C1641      C1646   1.388       .  A
C1641      H1648   1.084       .  S
C1642      C1643   1.407       .  A
C1643      C1644   1.403       .  A
C1643      F1650   1.357       .  S
C1644      C1645   1.408       .  A
C1644      H1649   1.083       .  S
C1645      C1646   1.409       .  A
C1646      F1647   1.358       .  S
C1651      C1652   1.402       .  A
C1651      C1656   1.392       .  A
C1651      H1658   1.084       .  S
C1653      F1660   1.357       .  S
C1654      C1655   1.408       .  A
C1655      C1656   1.409       .  A
C1656      F1657   1.358       .  S
C1661      C1662   1.407       .  A
C1661      C1666   1.394       .  A
C1661      H1668   1.082       .  S
C1663      F1670   1.358       .  S
C1664      C1665   1.401       .  A
C1665      C1666   1.401       .  A
C1666      F1667   1.358       .  S
C1671      C1672   1.402   1_554  A
C1671      C1676   1.396       .  A
C1671      H1678   1.083       .  S
C1672      C1673   1.403       .  A
C1673      C1674   1.399       .  A
C1673      F1680   1.357       .  S
C1674      C1675   1.407       .  A
C1674      H1679   1.083       .  S
C1675      C1676   1.409   1_556  A
C1681      C1682   1.403       .  A
C1681      C1686   1.405       .  A
C1681      C2212   1.477       .  S
C1682      C1683   1.402       .  A
C1682      H1687   1.084       .  S
C1683      C1684   1.404       .  A
C1683      C2235   1.481       .  S
C1684      C1685   1.403       .  A
C1684      H1688   1.083       .  S
C1685      C1686   1.403       .  A
C1685      C2222   1.487       .  S
C1686      H1689   1.084       .  S
C1690      C1691   1.405       .  A
C1690      C1695   1.405       .  A
C1690      C1905   1.476       .  S
C1691      C1692   1.408       .  A
C1691      H1696   1.083       .  S
C1692      C1693   1.404       .  A
C1692      C1912   1.490       .  S
C1693      C1694   1.402       .  A
C1693      H1697   1.083       .  S
C1694      C1695   1.397       .  A
C1694      C1922   1.478       .  S
C1695      H1698   1.084       .  S
C1699      C1700   1.406       .  A
C1699      C1704   1.403       .  A
C1699      C1892   1.480       .  S
C1700      C1701   1.408       .  A
C1700      H1705   1.083       .  S
C1701      C1702   1.407       .  A
C1701      C1885   1.490       .  S
C1702      C1703   1.400       .  A
C1702      H1706   1.083       .  S
C1703      C1704   1.397       .  A
C1703      C1875   1.478       .  S
C1704      H1707   1.084       .  S
C1708      C1709   1.402       .  A
C1708      C1713   1.400       .  A
C1708      C1862   1.469       .  S
C1709      C1710   1.401       .  A
C1709      H1714   1.084       .  S
C1710      C1711   1.403       .  A
C1710      C1855   1.484       .  S
C1711      C1712   1.407       .  A
C1711      H1715   1.084       .  S
C1712      C1713   1.403       .  A
C1712      C1842   1.482       .  S
C1713      H1716   1.083       .  S
O1717     Zr1729   2.457       .  S
O1717      C1719   1.290       .  A
O1718     Zr1755   2.410       .  S
O1718      C1719   1.285       .  A
C1719      C1895   1.485       .  S
O1720     Zr1732   2.423       .  S
O1720      C1722   1.284       .  A
O1721      C1722   1.286       .  A
C1722      C1872   1.478       .  S
O1723     Zr1732   2.433       .  S
O1723      C1725   1.286       .  A
O1724     Zr1755   2.424   1_545  S
C1725      C1952   1.465       .  S
O1726     Zr1729   2.452       .  S
O1727     Zr1756   2.410       .  S
C1728      C1804   1.468       .  S
Zr1729     O1730   2.435       .  S
Zr1729     O1735   2.375       .  S
O1731      H1772   0.990   1_455  S
Zr1732     O1733   2.435       .  S
Zr1732     O1734   2.433       .  S
Zr1732     O1736   2.370       .  S
Zr1732     O1760   2.364       .  S
Zr1732     O1762   2.372       .  S
O1733      H1774   0.990       .  S
O1733      H1777   0.990       .  S
O1734      H1767   0.990       .  S
O1735     Zr1755   2.374       .  S
O1736      H1763   0.966       .  S
O1737     Zr1749   2.443       .  S
O1737      C1739   1.289       .  A
O1738      C1739   1.285       .  A
C1739      C1882   1.472       .  S
O1740     Zr2032   2.440   1_554  S
O1741     Zr1755   2.410       .  S
C1742      C1790   1.468       .  S
O1743     Zr1752   2.442       .  S
O1743      C1745   1.288       .  A
O1744     Zr1756   2.412       .  S
O1744      C1745   1.285       .  A
C1745      C1935   1.477       .  S
O1746     Zr1749   2.448       .  S
O1746      C1748   1.289       .  A
O1747      C1748   1.284       .  A
C1748      C1945   1.467       .  S
Zr1749     O1750   2.438       .  S
Zr1749     O1751   2.435       .  S
Zr1749     O1757   2.374       .  S
Zr1749     O1758   2.369       .  S
Zr1749     O1761   2.371       .  S
Zr1749     O1759   2.368       .  S
O1750      H1770   0.990       .  S
O1750      H1775   0.990       .  S
O1751      H1771   0.990       .  S
Zr1752     O2020   2.449       .  S
O1753      H1769   0.990       .  S
O1754      H1768   0.990       .  S
O1757      H1765   0.967       .  S
O1760      H1764   0.968       .  S
O1761      H1766   0.965       .  S
O1779     Zr1791   2.452       .  S
O1779      C1781   1.290       .  A
O1780     Zr1817   2.405       .  S
O1780      C1781   1.284       .  A
C1781      C1865   1.483       .  S
O1782     Zr1794   2.439       .  S
O1782      C1784   1.288       .  A
O1783      C1784   1.284       .  A
C1784      C1845   1.464       .  S
O1785     Zr1794   2.430       .  S
O1785      C1787   1.287       .  A
O1786     Zr1817   2.431   1_545  S
C1787      C1925   1.482       .  S
O1788     Zr1791   2.455       .  S
O1789     Zr1818   2.414       .  S
Zr1791     O1792   2.436       .  S
Zr1791     O1797   2.372       .  S
O1793      H1834   0.990   1_655  S
Zr1794     O1795   2.439       .  S
Zr1794     O1796   2.435       .  S
Zr1794     O1798   2.365       .  S
Zr1794     O1822   2.372       .  S
Zr1794     O1824   2.371       .  S
O1795      H1836   0.990       .  S
O1795      H1839   0.990       .  S
O1796      H1829   0.990       .  S
O1797     Zr1817   2.376       .  S
O1798      H1825   0.965       .  S
O1799     Zr1811   2.438       .  S
O1799      C1801   1.287       .  A
O1800      C1801   1.284       .  A
C1801      C1852   1.465       .  S
O1802     Zr1814   2.456       .  S
O1803     Zr1817   2.407       .  S
O1805     Zr1814   2.450       .  S
O1805      C1807   1.289       .  A
O1806     Zr1818   2.410       .  S
O1806      C1807   1.285       .  A
C1807      C1902   1.481       .  S
O1808     Zr1811   2.443       .  S
O1808      C1810   1.288       .  A
O1809      C1810   1.286       .  A
C1810      C1915   1.473       .  S
Zr1811     O1812   2.433       .  S
Zr1811     O1813   2.432       .  S
Zr1811     O1819   2.368       .  S
Zr1811     O1820   2.369       .  S
Zr1811     O1823   2.365       .  S
Zr1811     O1821   2.367       .  S
O1812      H1832   0.990       .  S
O1812      H1837   0.990       .  S
O1813      H1833   0.990       .  S
O1815      H1831   0.990       .  S
O1816      H1830   0.990       .  S
O1819      H1827   0.967       .  S
O1822      H1826   0.964       .  S
O1823      H1828   0.965       .  S
C1841      C1842   1.405       .  A
C1841      C1846   1.393       .  A
C1841      H1848   1.083       .  S
C1842      C1843   1.412       .  A
C1843      C1844   1.398       .  A
C1843      F1850   1.357       .  S
C1844      C1845   1.400       .  A
C1844      H1849   1.084       .  S
C1845      C1846   1.402       .  A
C1846      F1847   1.357       .  S
C1851      C1852   1.400       .  A
C1851      C1856   1.397       .  A
C1851      H1858   1.084       .  S
C1852      C1853   1.403       .  A
C1853      C1854   1.397       .  A
C1853      F1860   1.358       .  S
C1854      C1855   1.406       .  A
C1854      H1859   1.083       .  S
C1855      C1856   1.411       .  A
C1856      F1857   1.357       .  S
C1861      C1862   1.401       .  A
C1861      C1866   1.402       .  A
C1861      H1868   1.083       .  S
C1862      C1863   1.401       .  A
C1863      C1864   1.390       .  A
C1863      F1870   1.359       .  S
C1864      C1865   1.407       .  A
C1864      H1869   1.083       .  S
C1865      C1866   1.412       .  A
C1866      F1867   1.357       .  S
C1871      C1872   1.407       .  A
C1871      C1876   1.399       .  A
C1871      H1878   1.083       .  S
C1872      C1873   1.410       .  A
C1873      C1874   1.392       .  A
C1873      F1880   1.358       .  S
C1874      C1875   1.403       .  A
C1874      H1879   1.084       .  S
C1875      C1876   1.405       .  A
C1876      F1877   1.357       .  S
C1881      C1882   1.402       .  A
C1881      C1886   1.395       .  A
C1881      H1888   1.084       .  S
C1882      C1883   1.404       .  A
C1883      C1884   1.398       .  A
C1883      F1890   1.358       .  S
C1884      C1885   1.409       .  A
C1884      H1889   1.082       .  S
C1885      C1886   1.411       .  A
C1886      F1887   1.358       .  S
C1891      C1892   1.404       .  A
C1891      C1896   1.403       .  A
C1891      H1898   1.083       .  S
C1892      C1893   1.406       .  A
C1893      C1894   1.392       .  A
C1893      F1900   1.358       .  S
C1894      C1895   1.406       .  A
C1894      H1899   1.083       .  S
C1895      C1896   1.411       .  A
C1896      F1897   1.357       .  S
C1901      C1902   1.409       .  A
C1901      C1906   1.403       .  A
C1901      H1908   1.083       .  S
C1902      C1903   1.409       .  A
C1903      C1904   1.390       .  A
C1903      F1910   1.358       .  S
C1904      C1905   1.401       .  A
C1904      H1909   1.084       .  S
C1905      C1906   1.405       .  A
C1906      F1907   1.357       .  S
C1911      C1912   1.408       .  A
C1911      C1916   1.397       .  A
C1911      H1918   1.083       .  S
C1912      C1913   1.411       .  A
C1913      C1914   1.399       .  A
C1913      F1920   1.358       .  S
C1914      C1915   1.403       .  A
C1914      H1919   1.084       .  S
C1915      C1916   1.403       .  A
C1916      F1917   1.357       .  S
C1921      C1922   1.400       .  A
C1921      C1926   1.388       .  A
C1921      H1928   1.084       .  S
C1922      C1923   1.407       .  A
C1923      C1924   1.405       .  A
C1923      F1930   1.358       .  S
C1924      C1925   1.409       .  A
C1924      H1929   1.083       .  S
C1925      C1926   1.409       .  A
C1926      F1927   1.358       .  S
C1931      C1932   1.403       .  A
C1931      C1936   1.393       .  A
C1931      H1938   1.083       .  S
C1932      C2213   1.407       .  A
C1932      C1961   1.481       .  S
C1933      C2212   1.406   1_554  A
C1933      C2214   1.400   1_554  A
C1933      F1940   1.357       .  S
C1934      C2213   1.402       .  A
C1934      C1935   1.406       .  A
C1934      H2219   1.083       .  S
C1935      C1936   1.407       .  A
C1936      F1937   1.358       .  S
H1939      C2214   1.083   1_554  S
C1941      C1942   1.408       .  A
C1941      C1946   1.396       .  A
C1941      H1948   1.082       .  S
C1942      C2223   1.412       .  A
C1942      C1965   1.490       .  S
C1943      C2222   1.410       .  A
C1943      C2224   1.398       .  A
C1943      F1950   1.358   1_556  S
C1944      C2223   1.399       .  A
C1944      C1945   1.401       .  A
C1944      H2229   1.084       .  S
C1945      C1946   1.402       .  A
C1946      F1947   1.358       .  S
H1949      C2224   1.084       .  S
C1951      C1952   1.402       .  A
C1951      C1956   1.396       .  A
C1951      H1958   1.083       .  S
C1952      C1953   1.402       .  A
C1953      C1954   1.397       .  A
C1953      F1960   1.358       .  S
C1954      C1955   1.406       .  A
C1954      H1959   1.083       .  S
C1955      C1956   1.409       .  A
C1955      C1963   1.482       .  S
C1956      F2237   1.358       .  S
F1957      C2236   1.358       .  S
C1961      C1962   1.404       .  A
C1961      C1966   1.406       .  A
C1962      C1963   1.403       .  A
C1962      H1967   1.083       .  S
C1963      C1964   1.403       .  A
C1964      C1965   1.403       .  A
C1964      H1968   1.083       .  S
C1965      C1966   1.406       .  A
C1966      H1969   1.083       .  S
C1970      C1971   1.408       .  A
C1970      C1975   1.406       .  A
C1970      C2185   1.484       .  S
C1971      C1972   1.410       .  A
C1971      H1976   1.083       .  S
C1972      C1973   1.404       .  A
C1972      C2192   1.490       .  S
C1973      C1974   1.402       .  A
C1973      H1977   1.084       .  S
C1974      C1975   1.398       .  A
C1974      C2202   1.480       .  S
C1975      H1978   1.084       .  S
C1979      C1980   1.405       .  A
C1979      C1984   1.405       .  A
C1979      C2172   1.481       .  S
C1980      C1981   1.407       .  A
C1980      H1985   1.083       .  S
C1981      C1982   1.406       .  A
C1981      C2165   1.489       .  S
C1982      C1983   1.402       .  A
C1982      H1986   1.083       .  S
C1983      C1984   1.399       .  A
C1983      C2155   1.482       .  S
C1984      H1987   1.084       .  S
C1988      C1989   1.402       .  A
C1988      C1993   1.403       .  A
C1988      C2142   1.475       .  S
C1989      C1990   1.404       .  A
C1989      H1994   1.083       .  S
C1990      C1991   1.403       .  A
C1990      C2135   1.483       .  S
C1991      C1992   1.404       .  A
C1991      H1995   1.084       .  S
C1992      C1993   1.401       .  A
C1992      C2122   1.483       .  S
C1993      H1996   1.084       .  S
O1997     Zr2009   2.455       .  S
O1997      C1999   1.290       .  A
O1998     Zr2035   2.405       .  S
O1998      C1999   1.284       .  A
C1999      C2175   1.483       .  S
O2000     Zr2012   2.427       .  S
O2000      C2002   1.286       .  A
O2001      C2002   1.287       .  A
C2002      C2152   1.482       .  S
O2003     Zr2012   2.430       .  S
O2003      C2005   1.286       .  A
O2004     Zr2035   2.429   1_545  S
C2005      C2232   1.466       .  S
O2006     Zr2009   2.456       .  S
O2007     Zr2036   2.399       .  S
C2008      C2084   1.467       .  S
Zr2009     O2010   2.435       .  S
Zr2009     O2015   2.376   1_565  S
O2011      H2052   0.990       .  S
Zr2012     O2013   2.437       .  S
Zr2012     O2014   2.435       .  S
Zr2012     O2016   2.368       .  S
Zr2012     O2040   2.363       .  S
Zr2012     O2042   2.373       .  S
O2013      H2054   0.990       .  S
O2013      H2057   0.990       .  S
O2014      H2047   0.990       .  S
O2015     Zr2035   2.377   1_545  S
O2016      H2043   0.966       .  S
O2017     Zr2029   2.444       .  S
O2017      C2019   1.289       .  A
O2018      C2019   1.284       .  A
C2019      C2162   1.469       .  S
O2021     Zr2035   2.415   1_554  S
C2022      C2070   1.468       .  S
O2023     Zr2032   2.445       .  S
O2023      C2025   1.288       .  A
O2024     Zr2036   2.406       .  S
O2024      C2025   1.284       .  A
C2025      C2215   1.476       .  S
O2026     Zr2029   2.440       .  S
O2026      C2028   1.288       .  A
O2027      C2028   1.285       .  A
C2028      C2225   1.466       .  S
Zr2029     O2030   2.435       .  S
Zr2029     O2031   2.437       .  S
Zr2029     O2037   2.373       .  S
Zr2029     O2038   2.372       .  S
Zr2029     O2041   2.371       .  S
Zr2029     O2039   2.366       .  S
O2030      H2050   0.990       .  S
O2030      H2055   0.990       .  S
O2031      H2051   0.990       .  S
O2033      H2049   0.990       .  S
O2034      H2048   0.990       .  S
O2037      H2045   0.967       .  S
O2040      H2044   0.968       .  S
O2041      H2046   0.965       .  S
O2059     Zr2071   2.443       .  S
O2059      C2061   1.287       .  A
O2060     Zr2097   2.412       .  S
O2060      C2061   1.286       .  A
C2061      C2145   1.473       .  S
O2062     Zr2074   2.428       .  S
O2062      C2064   1.285       .  A
O2063      C2064   1.283       .  A
C2064      C2125   1.461       .  S
O2065     Zr2074   2.423       .  S
O2065      C2067   1.285       .  A
O2066     Zr2097   2.430   1_545  S
C2067      C2205   1.480       .  S
O2068     Zr2071   2.447       .  S
O2069     Zr2098   2.416       .  S
Zr2071     O2072   2.434       .  S
Zr2071     O2077   2.374   1_565  S
O2073      H2114   0.990       .  S
Zr2074     O2075   2.438       .  S
Zr2074     O2076   2.435       .  S
Zr2074     O2078   2.366       .  S
Zr2074     O2102   2.371       .  S
Zr2074     O2104   2.371       .  S
O2075      H2116   0.990       .  S
O2075      H2119   0.990       .  S
O2076      H2109   0.990       .  S
O2077     Zr2097   2.381   1_545  S
O2078      H2105   0.965       .  S
O2079     Zr2091   2.446       .  S
O2079      C2081   1.288       .  A
O2080      C2081   1.283       .  A
C2081      C2132   1.464       .  S
O2082     Zr2094   2.447       .  S
O2083     Zr2097   2.412       .  S
O2085     Zr2094   2.458       .  S
O2085      C2087   1.291       .  A
O2086     Zr2098   2.412       .  S
O2086      C2087   1.285       .  A
C2087      C2182   1.486       .  S
O2088     Zr2091   2.441       .  S
O2088      C2090   1.287       .  A
O2089      C2090   1.287       .  A
C2090      C2195   1.474       .  S
Zr2091     O2092   2.437       .  S
Zr2091     O2093   2.435       .  S
Zr2091     O2099   2.372       .  S
Zr2091     O2100   2.367       .  S
Zr2091     O2103   2.376       .  S
Zr2091     O2101   2.371       .  S
O2092      H2112   0.990       .  S
O2092      H2117   0.990       .  S
O2093      H2113   0.990       .  S
O2095      H2111   0.990   1_545  S
O2096      H2110   0.990       .  S
O2099      H2107   0.967       .  S
O2102      H2106   0.965       .  S
O2103      H2108   0.965       .  S
C2121      C2122   1.406       .  A
C2121      C2126   1.394       .  A
C2121      H2128   1.083       .  S
C2122      C2123   1.412       .  A
C2123      C2124   1.396       .  A
C2123      F2130   1.357       .  S
C2124      C2125   1.398       .  A
C2124      H2129   1.084       .  S
C2125      C2126   1.402       .  A
C2126      F2127   1.358       .  S
C2131      C2132   1.400       .  A
C2131      C2136   1.397       .  A
C2131      H2138   1.084       .  S
C2132      C2133   1.402       .  A
C2133      C2134   1.397       .  A
C2133      F2140   1.358       .  S
C2134      C2135   1.407       .  A
C2134      H2139   1.083       .  S
C2135      C2136   1.410       .  A
C2136      F2137   1.357       .  S
C2141      C2142   1.405       .  A
C2141      C2146   1.403       .  A
C2141      H2148   1.083       .  S
C2142      C2143   1.404       .  A
C2143      C2144   1.389       .  A
C2143      F2150   1.358       .  S
C2144      C2145   1.401       .  A
C2144      H2149   1.082       .  S
C2145      C2146   1.409       .  A
C2146      F2147   1.357       .  S
C2151      C2152   1.407       .  A
C2151      C2156   1.401       .  A
C2151      H2158   1.083       .  S
C2152      C2153   1.409       .  A
C2153      C2154   1.392       .  A
C2153      F2160   1.358       .  S
C2154      C2155   1.403       .  A
C2154      H2159   1.083       .  S
C2155      C2156   1.407       .  A
C2156      F2157   1.357       .  S
C2161      C2162   1.401       .  A
C2161      C2166   1.395       .  A
C2161      H2168   1.084       .  S
C2162      C2163   1.403       .  A
C2163      C2164   1.398       .  A
C2163      F2170   1.358       .  S
C2164      C2165   1.409       .  A
C2164      H2169   1.082       .  S
C2165      C2166   1.411       .  A
C2166      F2167   1.358       .  S
C2171      C2172   1.405       .  A
C2171      C2176   1.404       .  A
C2171      H2178   1.083       .  S
C2172      C2173   1.405       .  A
C2173      C2174   1.391       .  A
C2173      F2180   1.358       .  S
C2174      C2175   1.406       .  A
C2174      H2179   1.083       .  S
C2175      C2176   1.410       .  A
C2176      F2177   1.357       .  S
C2181      C2182   1.409       .  A
C2181      C2186   1.406       .  A
C2181      H2188   1.083       .  S
C2182      C2183   1.409       .  A
C2183      C2184   1.392       .  A
C2183      F2190   1.358       .  S
C2184      C2185   1.403       .  A
C2184      H2189   1.084       .  S
C2185      C2186   1.407       .  A
C2186      F2187   1.357       .  S
C2191      C2192   1.407       .  A
C2191      C2196   1.398       .  A
C2191      H2198   1.083       .  S
C2192      C2193   1.412       .  A
C2193      C2194   1.400       .  A
C2193      F2200   1.358       .  S
C2194      C2195   1.404       .  A
C2194      H2199   1.084       .  S
C2195      C2196   1.403       .  A
C2196      F2197   1.357       .  S
C2201      C2202   1.401       .  A
C2201      C2206   1.390       .  A
C2201      H2208   1.084       .  S
C2202      C2203   1.407       .  A
C2203      C2204   1.404       .  A
C2203      F2210   1.357       .  S
C2204      C2205   1.407       .  A
C2204      H2209   1.083       .  S
C2205      C2206   1.409       .  A
C2206      F2207   1.358       .  S
C2211      C2212   1.402       .  A
C2211      C2216   1.391       .  A
C2211      H2218   1.084       .  S
C2213      F2220   1.357       .  S
C2214      C2215   1.406       .  A
C2215      C2216   1.407       .  A
C2216      F2217   1.358       .  S
C2221      C2222   1.408       .  A
C2221      C2226   1.397       .  A
C2221      H2228   1.083       .  S
C2223      F2230   1.358       .  S
C2224      C2225   1.401       .  A
C2225      C2226   1.401       .  A
C2226      F2227   1.358       .  S
C2231      C2232   1.402   1_554  A
C2231      C2236   1.396       .  A
C2231      H2238   1.084       .  S
C2232      C2233   1.402       .  A
C2233      C2234   1.398       .  A
C2233      F2240   1.358       .  S
C2234      C2235   1.407       .  A
C2234      H2239   1.083       .  S
C2235      C2236   1.407   1_556  A
