geometry optimzed in LAMMPS
_audit_creation_date              2020-12-01 
_audit_creation_method            'lammps2cif' 
_symmetry_space_group_name_H-M    'P1' 
_symmetry_Int_Tables_number       1 
_symmetry_cell_setting            triclinic 
loop_ 
_symmetry_equiv_pos_as_xyz 
  x,y,z 
_cell_length_a                    60.82586499 
_cell_length_b                    60.77206783992643 
_cell_length_c                    77.96338245567806 
_cell_angle_alpha                 89.87893410582076 
_cell_angle_beta                  90.04467270858046 
_cell_angle_gamma                 119.82690032487851 
loop_ 
_atom_site_label 
_atom_site_type_symbol 
_atom_site_fract_x 
_atom_site_fract_y 
_atom_site_fract_z 
_atom_site_charge 
O1          O  0.87311679  0.14235359  0.18149580    -0.78600
C2          C  0.88546212  0.21300170  0.20335955     0.82500
O3          O  0.78936613  0.12811630  0.19515141    -0.79700
O4          O  0.82549226  0.21563669  0.17293653    -0.81200
O5          O  0.86560576  0.18667572  0.13258819    -0.81000
O6          O  0.86799712  0.13893184  0.15317117    -0.79600
Zn7        Zn  0.85318130  0.15853400  0.19025927     1.55700
O8          O  0.87308859  0.22069020  0.14797535    -0.81000
Cd9        Cd  0.84604340  0.15611094  0.14903681     1.59700
Cd10       Cd  0.80139569  0.15183944  0.17410721     1.59600
O11         O  0.81272492  0.13106390  0.13642794    -0.81000
O12         O  0.83890381  0.16807563  0.17125406    -1.91500
Cd13       Cd  0.85380193  0.20588956  0.17090585     1.59900
O14         O  0.78254701  0.13007563  0.15309670    -0.80900
O15         O  0.87873639  0.22266323  0.19132037    -0.79600
C16         C  0.80148616  0.12323353  0.20644779     0.83000
C17         C  0.87734934  0.13560129  0.16695080     0.82600
O18         O  0.87698993  0.18916684  0.20423520    -0.78500
C19         C  0.87518487  0.21061236  0.13416535     0.83400
O20         O  0.82558209  0.13365124  0.20612330    -0.78600
C21         C  0.78944410  0.12354217  0.13952308     0.83600
C22         C  0.80155373  0.20272392  0.17524631     0.83900
O23         O  0.79004125  0.17861258  0.17651353    -0.81000
C24         C  0.04659185  0.33486872  0.31505590     0.80200
N25         N  0.06944758  0.33589270  0.31496244    -0.78100
C26         C  0.08723427  0.34926893  0.32701270     0.82600
N27         N  0.08195508  0.36174483  0.33928530    -0.78100
C28         C  0.05925717  0.36099249  0.33968570     0.82700
N29         N  0.04153983  0.34744514  0.32751814    -0.79800
C30         C  0.68616076  0.97964062  0.32707934     0.80200
N31         N  0.68365992  0.95612300  0.32652405    -0.78100
C32         C  0.66930282  0.93822951  0.33830801     0.82600
N33         N  0.65731999  0.94401604  0.35061828    -0.78100
C34         C  0.65952656  0.96731118  0.35143451     0.82700
N35         N  0.67409732  0.98518473  0.33963422    -0.79800
C36         C  0.97419594  0.34815406  0.00775936     0.80200
N37         N  0.97258801  0.36957331  0.00584934    -0.78100
C38         C  0.98556596  0.38650293  0.99315899     0.82600
N39         N  0.99992900  0.38155751  0.98219977    -0.78100
C40         C  0.00165153  0.36017900  0.98381115     0.82700
N41         N  0.98882976  0.34359800  0.99673639    -0.79800
C42         C  0.63895366  0.00868518  0.02142744     0.80200
N43         N  0.61550387  0.00612616  0.02270137    -0.78100
C44         C  0.59707752  0.99193650  0.01117877     0.82600
N45         N  0.60226293  0.98007128  0.99837074    -0.78100
C46         C  0.62563687  0.98257868  0.99686607     0.82700
N47         N  0.64394007  0.99702431  0.00836725    -0.79800
O48         O  0.46106997  0.48455211  0.46523467    -0.78600
C49         C  0.46036011  0.53677368  0.50397412     0.82500
O50         O  0.54800964  0.54148535  0.47631975    -0.79700
O51         O  0.52098004  0.53502033  0.53547002    -0.81200
O52         O  0.45824110  0.44742815  0.52021025    -0.81000
O53         O  0.45737909  0.44925109  0.47651342    -0.79600
Zn54       Zn  0.48381461  0.51335439  0.48075557     1.55700
O55         O  0.46572016  0.48060875  0.53652093    -0.81000
Cd56       Cd  0.48003953  0.46368803  0.49832856     1.59700
Cd57       Cd  0.53424493  0.51703858  0.49727909     1.59600
O58         O  0.50749654  0.45288827  0.49725713    -0.81000
O59         O  0.49649042  0.50166852  0.49936897    -1.91500
Cd60       Cd  0.48823083  0.51236274  0.52164610     1.59900
O61         O  0.54426136  0.48907025  0.49514528    -0.80900
O62         O  0.46893589  0.53239880  0.51773677    -0.79600
C63         C  0.53652270  0.54834799  0.46575120     0.83000
C64         C  0.45220159  0.46064639  0.46478338     0.82600
O65         O  0.46416781  0.52979292  0.48940460    -0.78500
C66         C  0.45531943  0.45671489  0.53414020     0.83400
O67         O  0.51260656  0.53917655  0.46645400    -0.78600
C68         C  0.53160118  0.46488682  0.49583672     0.83600
C69         C  0.54446069  0.54304504  0.53279552     0.83900
O70         O  0.55223961  0.53783618  0.51902958    -0.81000
O71         O  0.71760646  0.85962234  0.83004379    -0.78600
C72         C  0.66172660  0.79171366  0.80285114     0.82500
O73         O  0.64804835  0.87366516  0.82109621    -0.79700
O74         O  0.59614803  0.78343828  0.83348128    -0.81200
O75         O  0.66575764  0.79875831  0.87271890    -0.81000
O76         O  0.71433571  0.85337474  0.85826107    -0.79600
Zn77       Zn  0.68163094  0.84281513  0.82099204     1.55700
O78         O  0.63583008  0.77001066  0.85571331    -0.81000
Cd79       Cd  0.67521150  0.83342045  0.86177082     1.59700
Cd80       Cd  0.63687610  0.84651664  0.84033982     1.59600
O81         O  0.66508503  0.85278652  0.87907370    -0.81000
O82         O  0.65700979  0.82860228  0.83947186    -1.91500
Cd83       Cd  0.63351217  0.79134700  0.83559045     1.59900
O84         O  0.64118359  0.86408699  0.86383813    -0.80900
O85         O  0.64348389  0.77956396  0.81333506    -0.79600
C86         C  0.66402463  0.87948419  0.80893357     0.83000
C87         C  0.72779748  0.86220768  0.84475344     0.82600
O88         O  0.67717130  0.81534990  0.80466360    -0.78500
C89         C  0.64979452  0.77578074  0.86905338     0.83400
O90         O  0.67744002  0.86883612  0.80740535    -0.78600
C91         C  0.65209818  0.86396322  0.87778523     0.83600
C92         C  0.58562301  0.79708411  0.83444854     0.83900
O93         O  0.59851516  0.82095233  0.83705272    -0.81000
C94         C  0.68271466  0.65252075  0.65779678     0.80200
N95         N  0.70537379  0.65321518  0.65803651    -0.78100
C96         C  0.72159791  0.66371672  0.67142359     0.82600
N97         N  0.71496154  0.67371656  0.68468250    -0.78100
C98         C  0.69230256  0.67309735  0.68469173     0.82700
N99         N  0.67628082  0.66243375  0.67121203    -0.79800
C100        C  0.68202533  0.04252892  0.66599014     0.80200
N101        N  0.70356625  0.06538837  0.66706480    -0.78100
C102        C  0.71984413  0.07092592  0.68039849     0.82600
N103        N  0.71433367  0.05325183  0.69285533    -0.78100
C104        C  0.69286033  0.03023337  0.69200570     0.82700
N105        N  0.67684520  0.02495307  0.67848402    -0.79800
C106        C  0.62900918  0.62585844  0.98492362     0.80200
N107        N  0.64475270  0.63218169  0.99870788    -0.78100
C108        C  0.64016994  0.61499929  0.01138701     0.82600
N109        N  0.61949012  0.59145953  0.01022354    -0.78100
C110        C  0.60350141  0.58491456  0.99662474     0.82700
N111        N  0.60844198  0.60221885  0.98401476    -0.79800
O112        O  0.06819336  0.53461069  0.48484272    -0.78600
C113        C  0.01018794  0.46471831  0.45949437     0.82500
O114        O  0.99780079  0.54735501  0.47313087    -0.79700
O115        O  0.94585605  0.46148113  0.48998590    -0.81200
O116        O  0.01373352  0.47682410  0.52987099    -0.81000
O117        O  0.06485520  0.52809739  0.51305508    -0.79600
Zn118      Zn  0.03206662  0.51723721  0.47599810     1.55700
O119        O  0.98375340  0.44754403  0.51314120    -0.81000
Cd120      Cd  0.02596010  0.51077912  0.51696233     1.59700
Cd121      Cd  0.98888906  0.52420700  0.49450740     1.59600
O122        O  0.01899909  0.53412552  0.53279792    -0.81000
O123        O  0.00765306  0.50497102  0.49462581    -1.91500
Cd124      Cd  0.98280313  0.46780414  0.49180563     1.59900
O125        O  0.99615500  0.54551400  0.51653121    -0.80900
O126        O  0.99172835  0.45386191  0.47002801    -0.79600
C127        C  0.01338683  0.55160691  0.46095408     0.83000
C128        C  0.07832023  0.53691386  0.49955096     0.82600
O129        O  0.02664029  0.48816366  0.46088250    -0.78500
C130        C  0.99687201  0.45387814  0.52690848     0.83400
O131        O  0.02749421  0.54160756  0.46081899    -0.78600
C132        C  0.00737581  0.54654088  0.53057716     0.83600
C133        C  0.93635369  0.47597764  0.49158861     0.83900
O134        O  0.95026855  0.49980740  0.49373715    -0.81000
O135        O  0.86764231  0.73394013  0.17745137    -0.78600
C136        C  0.79466069  0.67858391  0.20115081     0.82500
O137        O  0.87052027  0.65670029  0.19149588    -0.79700
O138        O  0.78467072  0.61393163  0.16933570    -0.81200
O139        O  0.81526058  0.68430653  0.13010927    -0.81000
O140        O  0.86702912  0.73063239  0.14901679    -0.79600
Zn141      Zn  0.84771595  0.69738655  0.18617420     1.55700
O142        O  0.78162791  0.65850020  0.14590878    -0.81000
Cd143      Cd  0.84626634  0.69169748  0.14512985     1.59700
Cd144      Cd  0.84902741  0.64925370  0.16939519     1.59600
O145        O  0.86805380  0.68035235  0.13132210    -0.81000
O146        O  0.83514239  0.67299366  0.16742172    -1.91500
Cd147      Cd  0.79713508  0.65260125  0.16800720     1.59900
O148        O  0.87107128  0.65233864  0.14821773    -0.80900
O149        O  0.78331287  0.66226100  0.18934982    -0.79600
C150        C  0.87683147  0.67383613  0.20288865     0.83000
C151        C  0.87361889  0.74412978  0.16258382     0.82600
O152        O  0.81864327  0.69311007  0.20103698    -0.78500
C153        C  0.79132904  0.67107124  0.13216176     0.83400
O154        O  0.86990816  0.69045133  0.20191048    -0.78600
C155        C  0.87608200  0.66488597  0.13423479     0.83600
C156        C  0.79599170  0.60103662  0.17021306     0.83900
O157        O  0.82011437  0.61174267  0.17050259    -0.81000
C158        C  0.65279366  0.69274095  0.34573578     0.80200
N159        N  0.65237042  0.71489934  0.34500722    -0.78100
C160        C  0.66034337  0.72968741  0.33074942     0.82600
N161        N  0.66865554  0.72207948  0.31712956    -0.78100
C162        C  0.66941578  0.70017726  0.31759974     0.82700
N163        N  0.66159947  0.68554759  0.33199952    -0.79800
C164        C  0.03151104  0.71232839  0.31777571     0.80200
N165        N  0.05383680  0.73453905  0.31731675    -0.78100
C166        C  0.07296448  0.73888258  0.32819071     0.82600
N167        N  0.06958459  0.72069593  0.33968248    -0.78100
C168        C  0.04740056  0.69834756  0.34041534     0.82700
N169        N  0.02833329  0.69421495  0.32940130    -0.79800
O170        O  0.52414532  0.99522466  0.46782930    -0.78600
C171        C  0.47237715  0.94018688  0.50560594     0.82500
O172        O  0.46317886  0.02170210  0.48135128    -0.79700
O173        O  0.47287434  0.99939478  0.53941682    -0.81200
O174        O  0.56042281  0.03156482  0.52323052    -0.81000
O175        O  0.55831979  0.02714455  0.47981703    -0.79600
Zn176      Zn  0.49439120  0.98808672  0.48304808     1.55700
O177        O  0.52833832  0.00173401  0.53842258    -0.81000
Cd178      Cd  0.54304335  0.03507493  0.50119547     1.59700
Cd179      Cd  0.48794140  0.03218366  0.50190298     1.59600
O180        O  0.55165478  0.07272954  0.49920932    -0.81000
O181        O  0.50535625  0.01153966  0.50230531    -1.91500
Cd182      Cd  0.49616941  0.99166291  0.52416257     1.59900
O183        O  0.51397657  0.07050314  0.49947939    -0.80900
O184        O  0.47827864  0.95293321  0.51949545    -0.79600
C185        C  0.45872733  0.00600655  0.46920709     0.83000
C186        C  0.54792488  0.01084918  0.46786890     0.82600
O187        O  0.47741519  0.95119123  0.49100112    -0.78500
C188        C  0.55184585  0.01768665  0.53661236     0.83400
O189        O  0.46949373  0.99260614  0.46851248    -0.78600
C190        C  0.53810200  0.08337670  0.49870712     0.83600
C191        C  0.46390148  0.01431215  0.53781551     0.83900
O192        O  0.46789196  0.02778506  0.52437057    -0.81000
O193        O  0.17785793  0.31051744  0.79272080    -0.78600
C194        C  0.12894481  0.25642617  0.83214100     0.82500
O195        O  0.11666583  0.33544932  0.80591940    -0.79700
O196        O  0.12756410  0.31661734  0.86481876    -0.81200
O197        O  0.21523030  0.34791542  0.84774373    -0.81000
O198        O  0.21247088  0.34218066  0.80447620    -0.79600
Zn199      Zn  0.14883083  0.30306566  0.80868026     1.55700
O200        O  0.18370261  0.31929556  0.86398013    -0.81000
Cd201      Cd  0.19748295  0.35092803  0.82578539     1.59700
Cd202      Cd  0.14215303  0.34757773  0.82621060     1.59600
O203        O  0.20585111  0.38860937  0.82343955    -0.81000
O204        O  0.15984968  0.32727382  0.82746770    -1.91500
Cd205      Cd  0.15098758  0.30838705  0.84988553     1.59900
O206        O  0.16792826  0.38584405  0.82285593    -0.80900
O207        O  0.13330101  0.26932009  0.84589375    -0.79600
C208        C  0.11093443  0.31803368  0.79481184     0.83000
C209        C  0.20168240  0.32583915  0.79258674     0.82600
O210        O  0.13452652  0.26712458  0.81745655    -0.78500
C211        C  0.20719502  0.33486612  0.86151271     0.83400
O212        O  0.12163270  0.30454903  0.79473411    -0.78600
C213        C  0.19206514  0.39898258  0.82234283     0.83600
C214        C  0.11856453  0.33143440  0.86260361     0.83900
O215        O  0.12253958  0.34417342  0.84878062    -0.81000
C216        C  0.36149079  0.31519793  0.65870380     0.80200
N217        N  0.34706739  0.31814313  0.67083374    -0.78100
C218        C  0.33765175  0.30177241  0.68433898     0.82600
N219        N  0.34247545  0.28223715  0.68542960    -0.78100
C220        C  0.35648756  0.27885103  0.67326901     0.82700
N221        N  0.36607685  0.29554108  0.66002894    -0.79800
C222        C  0.95264656  0.31157658  0.65255728     0.80200
N223        N  0.96916220  0.31622109  0.66568366    -0.78100
C224        C  0.96317911  0.29921781  0.67869039     0.82600
N225        N  0.94040839  0.27748883  0.67847923    -0.78100
C226        C  0.92362186  0.27260004  0.66556523     0.82700
N227        N  0.92988575  0.28972575  0.65262233    -0.79800
O228        O  0.32726091  0.18146092  0.19593723    -0.78600
C229        C  0.27138532  0.13070020  0.15875967     0.82500
O230        O  0.35618989  0.12399655  0.18288717    -0.79700
O231        O  0.32841459  0.12920292  0.12475973    -0.81200
O232        O  0.36025579  0.21830797  0.14029298    -0.81000
O233        O  0.35853597  0.21602202  0.18379369    -0.79600
Zn234      Zn  0.31962638  0.15192112  0.18056039     1.55700
O235        O  0.33279875  0.18549696  0.12444700    -0.81000
Cd236      Cd  0.36527558  0.20092898  0.16183561     1.59700
Cd237      Cd  0.36332311  0.14597516  0.16113037     1.59600
O238        O  0.40296750  0.20971598  0.16233450    -0.81000
O239        O  0.34242560  0.16313367  0.16100631    -1.91500
Cd240      Cd  0.32220335  0.15382483  0.13942256     1.59900
O241        O  0.40159985  0.17240846  0.16103378    -0.80900
O242        O  0.28373097  0.13662485  0.14468680    -0.79600
C243        C  0.34003746  0.11853345  0.19486015     0.83000
C244        C  0.34274032  0.20526560  0.19598301     0.82600
O245        O  0.28269737  0.13543247  0.17321344    -0.78500
C246        C  0.34748717  0.20921410  0.12656087     0.83400
O247        O  0.32487787  0.12732841  0.19499507    -0.78600
C248        C  0.41404745  0.19656200  0.16182097     0.83600
C249        C  0.34180566  0.11861952  0.12678775     0.83900
O250        O  0.35560948  0.12260891  0.14001763    -0.81000
C251        C  0.32251199  0.34564385  0.33838214     0.80200
N252        N  0.33004574  0.33690272  0.32482272    -0.78100
C253        C  0.31556741  0.32859532  0.31039174     0.82600
N254        N  0.29335339  0.32881761  0.30968536    -0.78100
C255        C  0.28545079  0.33719587  0.32317175     0.82700
N256        N  0.30020259  0.34566233  0.33740667    -0.79800
C257        C  0.30408909  0.97712653  0.31901028     0.80200
N258        N  0.28148679  0.95555290  0.32096543    -0.78100
C259        C  0.27654757  0.94059533  0.33496250     0.82600
N260        N  0.29454141  0.94749119  0.34726885    -0.78100
C261        C  0.31734287  0.96904589  0.34560069     0.82700
N262        N  0.32211845  0.98380695  0.33136819    -0.79800
C263        C  0.35159070  0.36271368  0.98296447     0.80200
N264        N  0.34676633  0.34715234  0.99674706    -0.78100
C265        C  0.36508942  0.35240973  0.00865662     0.82600
N266        N  0.38821630  0.37337554  0.00670797    -0.78100
C267        C  0.39328735  0.38914409  0.99311956     0.82700
N268        N  0.37488070  0.38366482  0.98129387    -0.79800
O269        O  0.11893122  0.81314556  0.79405087    -0.78600
C270        C  0.11538123  0.85934051  0.83473510     0.82500
O271        O  0.20613750  0.86590955  0.81039115    -0.79700
O272        O  0.17084740  0.85233785  0.86786146    -0.81200
O273        O  0.11199822  0.76743309  0.84618499    -0.81000
O274        O  0.11292519  0.77608939  0.80366516    -0.79600
Zn275      Zn  0.14196876  0.83959725  0.81102153     1.55700
O276        O  0.11592218  0.79762200  0.86421544    -0.81000
Cd277      Cd  0.13519225  0.78688461  0.82563945     1.59700
Cd278      Cd  0.18943350  0.83909095  0.82982325     1.59600
O279        O  0.16213834  0.77549494  0.82332087    -0.81000
O280        O  0.15165167  0.82443200  0.82939986    -1.91500
Cd281      Cd  0.14015466  0.83144002  0.85183599     1.59900
O282        O  0.19925948  0.81102497  0.82627404    -0.80900
O283        O  0.12092351  0.85152529  0.84838210    -0.79600
C284        C  0.19675367  0.87445821  0.79934223     0.83000
C285        C  0.10867049  0.78913819  0.79270507     0.82600
O286        O  0.12235317  0.85595559  0.82003234    -0.78500
C287        C  0.10667639  0.77427608  0.86031502     0.83400
O288        O  0.17295306  0.86613498  0.79849079    -0.78600
C289        C  0.18631326  0.78708362  0.82392067     0.83600
C290        C  0.19461691  0.86061595  0.86665213     0.83900
O291        O  0.20435134  0.85694091  0.85320707    -0.81000
C292        C  0.96330754  0.67189041  0.67278097     0.80200
N293        N  0.96929025  0.66160828  0.65935454    -0.78100
C294        C  0.95304131  0.65106216  0.64596236     0.82600
N295        N  0.93054434  0.65076608  0.64615312    -0.78100
C296        C  0.92426510  0.66094402  0.65947669     0.82700
N297        N  0.94078471  0.67150589  0.67270694    -0.79800
C298        C  0.34165610  0.03363297  0.69386954     0.80200
N299        N  0.34261020  0.05644195  0.69427876    -0.78100
C300        C  0.35444590  0.07389230  0.68168313     0.82600
N301        N  0.36532724  0.06825223  0.66846253    -0.78100
C302        C  0.36468003  0.04557551  0.66783787     0.82700
N303        N  0.35282256  0.02835294  0.68061114    -0.79800
C304        C  0.98769193  0.62628231  0.97939184     0.80200
N305        N  0.97865287  0.63322096  0.99302579    -0.78100
C306        C  0.96900028  0.61793146  0.00694809     0.82600
N307        N  0.96837198  0.59526396  0.00713338    -0.78100
C308        C  0.97728990  0.58786381  0.99360440     0.82700
N309        N  0.98702351  0.60355366  0.97977341    -0.79800
C310        C  0.34887721  0.96832211  0.98545641     0.80200
N311        N  0.34440994  0.98249009  0.99696872    -0.78100
C312        C  0.36205299  0.99624700  0.00908267     0.82600
N313        N  0.38404578  0.99568511  0.00970705    -0.78100
C314        C  0.38861970  0.98140064  0.99852436     0.82700
N315        N  0.37100261  0.96788188  0.98638800    -0.79800
C316        C  0.03583247  0.02029302  0.16410711     0.80200
N317        N  0.02379838  0.99450245  0.16381263    -0.78100
C318        C  0.99809052  0.98053796  0.16267257     0.82600
N319        N  0.98444357  0.99271552  0.16166077    -0.78100
C320        C  0.99617780  0.01851261  0.16200507     0.82700
N321        N  0.02186910  0.03211614  0.16331003    -0.79800
C322        C  0.66190193  0.31982489  0.49551343     0.80200
N323        N  0.68758577  0.33292211  0.49637798    -0.78100
C324        C  0.70065164  0.35866303  0.49615087     0.82600
N325        N  0.68764758  0.37145942  0.49503387    -0.78100
C326        C  0.66185200  0.35869507  0.49423210     0.82700
N327        N  0.64912884  0.33285800  0.49446919    -0.79800
C328        C  0.31387464  0.66479630  0.50409787     0.80200
N329        N  0.32683264  0.69052878  0.50304460    -0.78100
C330        C  0.35247654  0.70383939  0.50468398     0.82600
N331        N  0.36527287  0.69102637  0.50730520    -0.78100
C332        C  0.35264245  0.66519575  0.50819978     0.82700
N333        N  0.32694360  0.65228156  0.50662542    -0.79800
C334        C  0.96408236  0.98281926  0.84468141     0.80200
N335        N  0.97745362  0.00861523  0.84420459    -0.78100
C336        C  0.00320621  0.02133847  0.84461304     0.82600
N337        N  0.01562663  0.00796714  0.84552216    -0.78100
C338        C  0.00263684  0.98216851  0.84607327     0.82700
N339        N  0.97681908  0.96969260  0.84563089    -0.79800
C340        C  0.31107493  0.63585304  0.82202165     0.80200
N341        N  0.29838215  0.64907385  0.82129380    -0.78100
C342        C  0.31139370  0.67498622  0.82134700     0.82600
N343        N  0.33717291  0.68745041  0.82206853    -0.78100
C344        C  0.35002531  0.67451920  0.82271521     0.82700
N345        N  0.33679030  0.64880983  0.82272772    -0.79800
C346        C  0.68808629  0.36513995  0.16579865     0.80200
N347        N  0.66236747  0.35175996  0.16507620    -0.78100
C348        C  0.64967467  0.32594603  0.16568492     0.82600
N349        N  0.66306265  0.31352329  0.16713070    -0.78100
C350        C  0.68883302  0.32667855  0.16790110     0.82700
N351        N  0.70107815  0.35241169  0.16719628    -0.79800
C352        C  0.21382323  0.89465581  0.78723884    -0.03300
C353        C  0.20448167  0.90720971  0.77694517    -0.05900
C354        C  0.22051729  0.92651241  0.76571531    -0.20900
C355        C  0.24616735  0.93349586  0.76427255     0.24800
C356        C  0.25561982  0.92102792  0.77458939    -0.18500
C357        C  0.23960330  0.90183112  0.78596019    -0.08500
C358        C  0.26249434  0.95436511  0.75228414    -0.18800
C359        C  0.28372803  0.95684915  0.74503436    -0.23600
C360        C  0.29912764  0.97716093  0.73242097     0.26800
C361        C  0.31333599  0.97278415  0.72010516    -0.20300
C362        C  0.32738178  0.99115085  0.70769224    -0.10000
C363        C  0.32777517  0.01448625  0.70746614    -0.10500
C364        C  0.31423874  0.01918247  0.72019730    -0.03400
C365        C  0.30011034  0.00077962  0.73252984    -0.18500
H366        H  0.18477644  0.90229723  0.77766966     0.10500
H367        H  0.21279353  0.93594047  0.75802935     0.10600
H368        H  0.27543306  0.92635268  0.77418681     0.10300
H369        H  0.24743398  0.89263701  0.79376831     0.11400
H370        H  0.25579436  0.96722020  0.74849848     0.11500
H371        H  0.28913632  0.94258435  0.74746466     0.13400
H372        H  0.31316197  0.95487381  0.71987360     0.09900
H373        H  0.33774299  0.98695114  0.69819363     0.12000
H374        H  0.31431138  0.03702985  0.72057053     0.08600
H375        H  0.29016356  0.00522866  0.74218628     0.11300
C376        C  0.09103528  0.77621040  0.77824023    -0.03300
C377        C  0.08408132  0.78998842  0.76713145    -0.05900
C378        C  0.06675334  0.77780641  0.75387673    -0.20900
C379        C  0.05626692  0.75167233  0.75122043     0.24800
C380        C  0.06315596  0.73779650  0.76229366    -0.18500
C381        C  0.08034174  0.74994789  0.77567785    -0.08500
C382        C  0.03749142  0.73940805  0.73722912    -0.18800
C383        C  0.03412500  0.71856609  0.72890218    -0.23600
C384        C  0.01569471  0.70677781  0.71465831     0.26800
C385        C  0.02065139  0.69376702  0.70176395    -0.20300
C386        C  0.00371400  0.68247363  0.68815290    -0.10000
C387        C  0.98121819  0.68364023  0.68728554    -0.10500
C388        C  0.97602256  0.69623909  0.70042252    -0.03400
C389        C  0.99305984  0.70769198  0.71394825    -0.18500
H390        H  0.09179371  0.81020774  0.76878961     0.10500
H391        H  0.06159402  0.78886321  0.74561524     0.10600
H392        H  0.05487020  0.71747489  0.76090971     0.10300
H393        H  0.08508550  0.73873583  0.78409305     0.11400
H394        H  0.02717479  0.74876223  0.73302303     0.11500
H395        H  0.04626930  0.71071097  0.73189408     0.13400
H396        H  0.03784300  0.69260186  0.70211671     0.09900
H397        H  0.00826850  0.67280558  0.67832846     0.12000
H398        H  0.95879348  0.69733419  0.70026753     0.08600
H399        H  0.98824921  0.71688712  0.72395535     0.11300
C400        C  0.21129208  0.87481999  0.88131970    -0.03300
C401        C  0.20127708  0.88032578  0.89589639    -0.05900
C402        C  0.21688359  0.89348411  0.90977768    -0.20900
C403        C  0.24282638  0.90129365  0.90956064     0.24800
C404        C  0.25297204  0.89619556  0.89483298    -0.18500
C405        C  0.23735990  0.88304235  0.88093842    -0.08500
C406        C  0.25862785  0.91509225  0.92474847    -0.18800
C407        C  0.28095540  0.91645335  0.92842136    -0.23600
C408        C  0.29728699  0.92969272  0.94355598     0.26800
C409        C  0.31953561  0.92840303  0.94570907    -0.20300
C410        C  0.33593013  0.94057054  0.95939689    -0.10000
C411        C  0.33060517  0.95450441  0.97140904    -0.10500
C412        C  0.30824311  0.95572391  0.96941899    -0.03400
C413        C  0.29176758  0.94351539  0.95564848    -0.18500
H414        H  0.18133825  0.87446044  0.89661028     0.10500
H415        H  0.20856022  0.89736509  0.92083760     0.10600
H416        H  0.27296929  0.90261624  0.89377945     0.10300
H417        H  0.24577662  0.87935062  0.86985928     0.11400
H418        H  0.25086732  0.92342756  0.93340443     0.11500
H419        H  0.28765656  0.90676173  0.92007336     0.13400
H420        H  0.32440666  0.91798562  0.93666300     0.09900
H421        H  0.35295219  0.93918746  0.96043313     0.12000
H422        H  0.30356637  0.96634995  0.97839892     0.08600
H423        H  0.27500502  0.94526168  0.95459710     0.11300
C424        C  0.08964662  0.75452685  0.87266544    -0.03300
C425        C  0.07703219  0.72875301  0.86808295    -0.05900
C426        C  0.06211660  0.71004166  0.88003983    -0.20900
C427        C  0.05937277  0.71659121  0.89684516     0.24800
C428        C  0.07179755  0.74244779  0.90138190    -0.18500
C429        C  0.08659638  0.76116291  0.88939469    -0.08500
C430        C  0.04469549  0.69586855  0.90942202    -0.18800
C431        C  0.03569387  0.69936127  0.92435373    -0.23600
C432        C  0.02229107  0.67924822  0.93754787     0.26800
C433        C  0.00946052  0.68394162  0.95071356    -0.20300
C434        C  0.99787112  0.66653978  0.96403371    -0.10000
C435        C  0.99885587  0.64390995  0.96461072    -0.10500
C436        C  0.01134222  0.63892668  0.95130013    -0.03400
C437        C  0.02304777  0.65643549  0.93795367    -0.18500
H438        H  0.07890989  0.72296166  0.85527819     0.10500
H439        H  0.05290561  0.69034377  0.87619311     0.10600
H440        H  0.07092704  0.74845156  0.91429166     0.10300
H441        H  0.09619611  0.78080355  0.89338864     0.11400
H442        H  0.04090030  0.67704962  0.90596545     0.11500
H443        H  0.03773796  0.71775639  0.92708606     0.13400
H444        H  0.00862552  0.70132668  0.95081623     0.09900
H445        H  0.98837793  0.67105657  0.97401697     0.12000
H446        H  0.01258851  0.62177366  0.95138439     0.08600
H447        H  0.03320389  0.65220969  0.92834290     0.11300
C448        C  0.29790657  0.68982318  0.82102867    -0.03300
C449        C  0.31157073  0.71633601  0.82306536    -0.05900
C450        C  0.29918977  0.73050277  0.82315466    -0.20900
C451        C  0.27281850  0.71872577  0.82107885     0.24800
C452        C  0.25903562  0.69215416  0.81898298    -0.18500
C453        C  0.27146478  0.67791097  0.81895523    -0.08500
C454        C  0.26070306  0.73490590  0.82195843    -0.18800
C455        C  0.23681526  0.72752164  0.81685414    -0.23600
C456        C  0.22467014  0.74357266  0.81854465     0.26800
C457        C  0.19810371  0.73157537  0.81872880    -0.20300
C458        C  0.18572667  0.74565587  0.82045183    -0.10000
C459        C  0.19961078  0.77223460  0.82190512    -0.10500
C460        C  0.22624254  0.78435608  0.82143540    -0.03400
C461        C  0.23864440  0.77023841  0.81971587    -0.18500
H462        H  0.33193450  0.72626283  0.82477855     0.10500
H463        H  0.31033835  0.75084521  0.82490827     0.10600
H464        H  0.23864522  0.68208088  0.81774354     0.10300
H465        H  0.26031383  0.65754092  0.81742263     0.11400
H466        H  0.27216366  0.75375142  0.82725452     0.11500
H467        H  0.22514018  0.70865110  0.81168117     0.13400
H468        H  0.18682593  0.71112858  0.81773077     0.09900
H469        H  0.16520763  0.73563386  0.82072309     0.12000
H470        H  0.23754794  0.80480362  0.82232824     0.08600
H471        H  0.25911297  0.78039123  0.81906180     0.11300
C472        C  0.01667624  0.96795003  0.84698504    -0.03300
C473        C  0.04240829  0.98041559  0.85170999    -0.05900
C474        C  0.05588548  0.96730608  0.85230659    -0.20900
C475        C  0.04418597  0.94156569  0.84786184     0.24800
C476        C  0.01835298  0.92892989  0.84333708    -0.18500
C477        C  0.00473699  0.94196710  0.84298003    -0.08500
C478        C  0.05936156  0.92845018  0.84838832    -0.18800
C479        C  0.05497552  0.90908927  0.83789059    -0.23600
C480        C  0.07097057  0.89685250  0.83754684     0.26800
C481        C  0.07272588  0.88578336  0.82221002    -0.20300
C482        C  0.08737184  0.87393154  0.82129253    -0.10000
C483        C  0.10023014  0.87236073  0.83582633    -0.10500
C484        C  0.09814395  0.88303747  0.85130453    -0.03400
C485        C  0.08378702  0.89529463  0.85214782    -0.18500
H486        H  0.05217311  0.00034804  0.85503025     0.10500
H487        H  0.07567723  0.97743591  0.85599698     0.10600
H488        H  0.00853064  0.90891947  0.84028243     0.10300
H489        H  0.98492623  0.93174912  0.83936919     0.11400
H490        H  0.07575741  0.93623919  0.85679984     0.11500
H491        H  0.04012456  0.90303636  0.82830166     0.13400
H492        H  0.06287642  0.88649689  0.81082131     0.09900
H493        H  0.08834709  0.86568065  0.80921875     0.12000
H494        H  0.10771838  0.88202889  0.86274589     0.08600
H495        H  0.08236181  0.90305730  0.86429965     0.11300
C496        C  0.24325151  0.11780594  0.15822898    -0.03300
C497        C  0.23021635  0.10742911  0.14280511    -0.05900
C498        C  0.20372235  0.09456039  0.14231026    -0.20900
C499        C  0.18955312  0.09209335  0.15711676     0.24800
C500        C  0.20253911  0.10266693  0.17255889    -0.18500
C501        C  0.22909541  0.11531174  0.17310441    -0.08500
C502        C  0.16137598  0.07709634  0.15610806    -0.18800
C503        C  0.14572092  0.08012342  0.16685734    -0.23600
C504        C  0.11757334  0.06454327  0.16578790     0.26800
C505        C  0.10270942  0.07480412  0.17156857    -0.20300
C506        C  0.07620068  0.06053329  0.17094466    -0.10000
C507        C  0.06393562  0.03542138  0.16489105    -0.10500
C508        C  0.07880544  0.02498406  0.15940030    -0.03400
C509        C  0.10530110  0.03938696  0.15976551    -0.18500
H510        H  0.24048304  0.10885814  0.13112621     0.10500
H511        H  0.19423551  0.08643082  0.13028836     0.10600
H512        H  0.19229183  0.10061689  0.18433843     0.10300
H513        H  0.23853734  0.12302798  0.18520157     0.11400
H514        H  0.15328230  0.06367793  0.14562264     0.11500
H515        H  0.15364154  0.09520821  0.17630374     0.13400
H516        H  0.11164902  0.09401466  0.17644391     0.09900
H517        H  0.06529346  0.06907729  0.17538512     0.12000
H518        H  0.06995451  0.00571125  0.15466247     0.08600
H519        H  0.11607733  0.03056294  0.15564794     0.11300
C520        C  0.35829850  0.01276532  0.02108328    -0.03300
C521        C  0.37894841  0.03655834  0.02531691    -0.05900
C522        C  0.37611535  0.05219451  0.03710706    -0.20900
C523        C  0.35285438  0.04391552  0.04533044     0.24800
C524        C  0.33208933  0.02014973  0.04112763    -0.18500
C525        C  0.33470330  0.00479496  0.02885877    -0.08500
C526        C  0.35072327  0.06050495  0.05819214    -0.18800
C527        C  0.34125423  0.05198985  0.07390567    -0.23600
C528        C  0.34119550  0.06910500  0.08734355     0.26800
C529        C  0.34642203  0.06583311  0.10438405    -0.20300
C530        C  0.34691190  0.08209954  0.11723052    -0.10000
C531        C  0.34144118  0.10143893  0.11329322    -0.10500
C532        C  0.33567909  0.10434205  0.09627638    -0.03400
C533        C  0.33576287  0.08846301  0.08338837    -0.18500
H534        H  0.39730617  0.04312770  0.01940680     0.10500
H535        H  0.39226086  0.07049980  0.04015274     0.10600
H536        H  0.31387590  0.01360732  0.04724254     0.10300
H537        H  0.31858356  0.98648821  0.02580034     0.11400
H538        H  0.35944358  0.08061031  0.05528785     0.11500
H539        H  0.33525642  0.03247129  0.07736253     0.13400
H540        H  0.35055242  0.05094358  0.10769188     0.09900
H541        H  0.35126543  0.07937402  0.13026607     0.12000
H542        H  0.33142800  0.11912245  0.09288923     0.08600
H543        H  0.33123852  0.09110126  0.07038173     0.11300
C544        C  0.35025865  0.22635967  0.11230173    -0.03300
C545        C  0.35083203  0.21880083  0.09537880    -0.05900
C546        C  0.35414324  0.23496413  0.08167489    -0.20900
C547        C  0.35597199  0.25854064  0.08458365     0.24800
C548        C  0.35505820  0.26607805  0.10148214    -0.18500
C549        C  0.35260752  0.25021429  0.11529294    -0.08500
C550        C  0.36028156  0.27550324  0.06985066    -0.18800
C551        C  0.34738732  0.28793291  0.06767426    -0.23600
C552        C  0.35187251  0.30442212  0.05257079     0.26800
C553        C  0.33135407  0.30375761  0.04387225    -0.20300
C554        C  0.33547352  0.31898382  0.02936662    -0.10000
C555        C  0.36026824  0.33563694  0.02365979    -0.10500
C556        C  0.38076644  0.33657458  0.03264770    -0.03400
C557        C  0.37661609  0.32102025  0.04686811    -0.18500
H558        H  0.34930123  0.20059102  0.09278984     0.10500
H559        H  0.35506632  0.22896611  0.06873621     0.10600
H560        H  0.35688618  0.28442623  0.10398922     0.10300
H561        H  0.35226311  0.25641615  0.12826236     0.11400
H562        H  0.37328468  0.27648584  0.05990824     0.11500
H563        H  0.33236789  0.28482588  0.07659722     0.13400
H564        H  0.31211976  0.29113672  0.04814778     0.09900
H565        H  0.31933409  0.31799424  0.02278184     0.12000
H566        H  0.40011025  0.34923389  0.02861414     0.08600
H567        H  0.39277224  0.32220295  0.05355459     0.11300
C568        C  0.30821761  0.99328963  0.30374387    -0.03300
C569        C  0.28753308  0.98842396  0.29318895    -0.05900
C570        C  0.29065638  0.00376510  0.27907502    -0.20900
C571        C  0.31454308  0.02418705  0.27495073     0.24800
C572        C  0.33544327  0.02907506  0.28534172    -0.18500
C573        C  0.33227022  0.01374433  0.29965115    -0.08500
C574        C  0.31620067  0.04054318  0.26031261    -0.18800
C575        C  0.33758305  0.05566834  0.25158234    -0.23600
C576        C  0.33791102  0.07165442  0.23704294     0.26800
C577        C  0.35568168  0.07785416  0.22382091    -0.20300
C578        C  0.35621838  0.09278413  0.20995350    -0.10000
C579        C  0.33911994  0.10201740  0.20916137    -0.10500
C580        C  0.32157897  0.09605176  0.22253457    -0.03400
C581        C  0.32105500  0.08118145  0.23634255    -0.18500
H582        H  0.26867949  0.97294099  0.29595936     0.10500
H583        H  0.27423782  0.99970167  0.27137190     0.10600
H584        H  0.35406142  0.04503882  0.28276702     0.10300
H585        H  0.34855409  0.01799747  0.30754722     0.11400
H586        H  0.29852896  0.03910435  0.25608096     0.11500
H587        H  0.35490860  0.05545004  0.25452213     0.13400
H588        H  0.36901800  0.07095486  0.22415589     0.09900
H589        H  0.37012335  0.09721492  0.19992183     0.12000
H590        H  0.30837093  0.10310933  0.22245942     0.08600
H591        H  0.30770838  0.07762633  0.24659788     0.11300
C592        C  0.32348378  0.31896342  0.29558596    -0.03300
C593        C  0.31506654  0.32010254  0.27898136    -0.05900
C594        C  0.32138916  0.30994030  0.26502629    -0.20900
C595        C  0.33562380  0.29780265  0.26744059     0.24800
C596        C  0.34454029  0.29709351  0.28397515    -0.18500
C597        C  0.33869722  0.30779134  0.29790331    -0.08500
C598        C  0.34043074  0.28564027  0.25254934    -0.18800
C599        C  0.33962084  0.26318743  0.25391323    -0.23600
C600        C  0.34099347  0.24902938  0.23886648     0.26800
C601        C  0.32703942  0.22247295  0.23918247    -0.20300
C602        C  0.32749503  0.20837300  0.22521245    -0.10000
C603        C  0.34232729  0.22052661  0.21067958    -0.10500
C604        C  0.35676562  0.24717789  0.21049672    -0.03400
C605        C  0.35601715  0.26132398  0.22442889    -0.18500
H606        H  0.30351408  0.32881343  0.27678337     0.10500
H607        H  0.31447483  0.31086039  0.25238016     0.10600
H608        H  0.35600357  0.28828462  0.28613246     0.10300
H609        H  0.34548097  0.30669628  0.31055037     0.11400
H610        H  0.34191354  0.29393518  0.23994007     0.11500
H611        H  0.33533487  0.25366671  0.26629432     0.13400
H612        H  0.31542315  0.21258742  0.25020274     0.09900
H613        H  0.31628351  0.18789222  0.22585885     0.12000
H614        H  0.36855814  0.25711121  0.19956536     0.08600
H615        H  0.36743855  0.28179081  0.22399338     0.11300
C616        C  0.44214883  0.20966554  0.16234626    -0.03300
C617        C  0.45502451  0.19592287  0.16070547    -0.05900
C618        C  0.48149076  0.20825220  0.16158782    -0.20900
C619        C  0.49574251  0.23460126  0.16401065     0.24800
C620        C  0.48283734  0.24832639  0.16581925    -0.18500
C621        C  0.45639058  0.23601458  0.16490140    -0.08500
C622        C  0.52386303  0.24685523  0.16515268    -0.18800
C623        C  0.53963112  0.27170310  0.16193824    -0.23600
C624        C  0.56781152  0.28466016  0.16315074     0.26800
C625        C  0.58134902  0.31128651  0.16316357    -0.20300
C626        C  0.60779237  0.32459027  0.16403322    -0.10000
C627        C  0.62151204  0.31161607  0.16485139    -0.10500
C628        C  0.60802498  0.28492678  0.16476694    -0.03400
C629        C  0.58149806  0.27157898  0.16388382    -0.18500
H630        H  0.44465316  0.17556862  0.15878306     0.10500
H631        H  0.49087287  0.19717991  0.16030749     0.10600
H632        H  0.49293193  0.26849546  0.16834340     0.10300
H633        H  0.44709426  0.24712767  0.16643973     0.11400
H634        H  0.53152007  0.23472687  0.16852955     0.11500
H635        H  0.53166646  0.28347185  0.15825445     0.13400
H636        H  0.57141485  0.32190180  0.16254007     0.09900
H637        H  0.61746211  0.34513353  0.16405205     0.12000
H638        H  0.61795091  0.27430198  0.16526042     0.08600
H639        H  0.57203724  0.25110308  0.16349871     0.11300
C640        C  0.36075813  0.25685715  0.67421630    -0.03300
C641        C  0.37213848  0.25124247  0.66049515    -0.05900
C642        C  0.37502323  0.22981573  0.66104115    -0.20900
C643        C  0.36652402  0.21341635  0.67524171     0.24800
C644        C  0.35592734  0.21949662  0.68924433    -0.18500
C645        C  0.35297238  0.24088725  0.68868124    -0.08500
C646        C  0.36909282  0.19029875  0.67487954    -0.18800
C647        C  0.35466726  0.16943711  0.68440274    -0.23600
C648        C  0.35593466  0.14562496  0.68348052     0.26800
C649        C  0.34549115  0.12815243  0.69701321    -0.20300
C650        C  0.34517308  0.10501725  0.69648327    -0.10000
C651        C  0.35520653  0.09868207  0.68231928    -0.10500
C652        C  0.36568313  0.11615550  0.66873667    -0.03400
C653        C  0.36598240  0.13932372  0.66926400    -0.18500
H654        H  0.37846802  0.26316290  0.64917053     0.10500
H655        H  0.38348470  0.22576166  0.65015880     0.10600
H656        H  0.35003522  0.20799296  0.70073773     0.10300
H657        H  0.34450262  0.24484943  0.69959329     0.11400
H658        H  0.38277421  0.19035396  0.66595878     0.11500
H659        H  0.34093755  0.16942620  0.69325912     0.13400
H660        H  0.33746350  0.13239347  0.70805798     0.09900
H661        H  0.33693586  0.09205707  0.70718671     0.12000
H662        H  0.37337827  0.11182197  0.65755990     0.08600
H663        H  0.37351452  0.15180593  0.65829897     0.11300
C664        C  0.11691763  0.22835029  0.83312306    -0.03300
C665        C  0.11774919  0.21443899  0.81898619    -0.05900
C666        C  0.10584955  0.18794604  0.81966612    -0.20900
C667        C  0.09240731  0.17464504  0.83433773     0.24800
C668        C  0.09196821  0.18855809  0.84863371    -0.18500
C669        C  0.10415873  0.21511121  0.84803449    -0.08500
C670        C  0.07951196  0.14638848  0.83434064    -0.18800
C671        C  0.05879331  0.13159792  0.84387597    -0.23600
C672        C  0.04501928  0.10330637  0.84350553     0.26800
C673        C  0.01957674  0.09010282  0.84878859    -0.20300
C674        C  0.00594654  0.06356198  0.84894078    -0.10000
C675        C  0.01758881  0.04951578  0.84411731    -0.10500
C676        C  0.04314789  0.06267740  0.83899066    -0.03400
C677        C  0.05670866  0.08926202  0.83862470    -0.18500
H678        H  0.12764727  0.22404169  0.80736711     0.10500
H679        H  0.10678631  0.17776295  0.80855628     0.10600
H680        H  0.08249106  0.17905928  0.86036721     0.10300
H681        H  0.10329727  0.22525968  0.85918136     0.11400
H682        H  0.08639378  0.13761160  0.82532827     0.11500
H683        H  0.05059960  0.14050583  0.85164412     0.13400
H684        H  0.01014124  0.10038411  0.85276205     0.09900
H685        H  0.98636276  0.05403905  0.85309742     0.12000
H686        H  0.05267902  0.05241563  0.83520536     0.08600
H687        H  0.07643508  0.09864907  0.83487518     0.11300
C688        C  0.98119350  0.30411613  0.69298555    -0.03300
C689        C  0.00393659  0.32738311  0.69427496    -0.05900
C690        C  0.02081056  0.33179229  0.70777957    -0.20900
C691        C  0.01553565  0.31296407  0.72013030     0.24800
C692        C  0.99264502  0.28981993  0.71899691    -0.18500
C693        C  0.97570672  0.28546369  0.70558557    -0.08500
C694        C  0.03395393  0.31823825  0.73423347    -0.18800
C695        C  0.03664517  0.29990103  0.74201828    -0.23600
C696        C  0.05559597  0.30505811  0.75570787     0.26800
C697        C  0.06515918  0.28843006  0.75768030    -0.20300
C698        C  0.08307594  0.29263689  0.77036444    -0.10000
C699        C  0.09156227  0.31339814  0.78157258    -0.10500
C700        C  0.08153235  0.32974169  0.77985726    -0.03400
C701        C  0.06376104  0.32564824  0.76704506    -0.18500
H702        H  0.00870596  0.34223446  0.68488367     0.10500
H703        H  0.03820673  0.34987729  0.70846837     0.10600
H704        H  0.98754814  0.27516867  0.72858326     0.10300
H705        H  0.95828043  0.26739475  0.70511548     0.11400
H706        H  0.04668296  0.33794408  0.73753615     0.11500
H707        H  0.02570198  0.28050487  0.73748408     0.13400
H708        H  0.05898500  0.27229851  0.74922571     0.09900
H709        H  0.09026922  0.27956875  0.77138087     0.12000
H710        H  0.08750809  0.34578747  0.78835324     0.08600
H711        H  0.05620199  0.33841299  0.76622170     0.11300
C712        C  0.32272308  0.30530110  0.69801771    -0.03300
C713        C  0.32020673  0.29404796  0.71421583    -0.05900
C714        C  0.30655471  0.29754751  0.72729932    -0.20900
C715        C  0.29459039  0.31186286  0.72442287     0.24800
C716        C  0.29694327  0.32307381  0.70821222    -0.18500
C717        C  0.31102480  0.31995440  0.69517590    -0.08500
C718        C  0.28069422  0.31550424  0.73880523    -0.18800
C719        C  0.26005458  0.31791857  0.73652014    -0.23600
C720        C  0.24562133  0.32035450  0.75106726     0.26800
C721        C  0.21929989  0.30974635  0.74956643    -0.20300
C722        C  0.20509538  0.31147745  0.76306042    -0.10000
C723        C  0.21699001  0.32439618  0.77825095    -0.10500
C724        C  0.24346841  0.33559712  0.77959077    -0.03400
C725        C  0.25763553  0.33347289  0.76618164    -0.12500
H726        H  0.32912845  0.28280480  0.71689493     0.10500
H727        H  0.30517840  0.28887525  0.73970303     0.10600
H728        H  0.28840236  0.33469672  0.70570149     0.10300
H729        H  0.31264853  0.32890430  0.68285558     0.11400
H730        H  0.28670342  0.31447892  0.75176949     0.11500
H731        H  0.25241727  0.31626988  0.72368521     0.13400
H732        H  0.20963754  0.29973574  0.73800279     0.09900
H733        H  0.18476334  0.30280165  0.76154540     0.12000
H734        H  0.25321087  0.34576185  0.79108231     0.08600
H735        H  0.27799774  0.34240590  0.76756347     0.11300
C736        C  0.22559151  0.33806056  0.87514628    -0.03300
C737        C  0.25178963  0.35279025  0.87224184    -0.05900
C738        C  0.26905082  0.35626255  0.88525060    -0.20900
C739        C  0.26064535  0.34521082  0.90151149     0.24800
C740        C  0.23436186  0.33041412  0.90441762    -0.18500
C741        C  0.21709982  0.32681355  0.89135902    -0.08500
C742        C  0.28004049  0.35047354  0.91500841    -0.18800
C743        C  0.27510105  0.33958196  0.93069220    -0.23600
C744        C  0.29499648  0.34597693  0.94397083     0.26800
C745        C  0.29057602  0.32852435  0.95720104    -0.20300
C746        C  0.30880237  0.33390618  0.96993746    -0.10000
C747        C  0.33186267  0.35698025  0.96975772    -0.10500
C748        C  0.33605644  0.37464300  0.95669787    -0.03400
C749        C  0.31782947  0.36931384  0.94403820    -0.18500
H750        H  0.25900826  0.36173332  0.85991066     0.10500
H751        H  0.28912418  0.36782937  0.88260650     0.10600
H752        H  0.22679527  0.32182842  0.91673567     0.10300
H753        H  0.19703461  0.31549749  0.89407452     0.11400
H754        H  0.29952894  0.36380782  0.91159454     0.11500
H755        H  0.25608369  0.32485798  0.93394695     0.13400
H756        H  0.27303191  0.31053853  0.95759876     0.09900
H757        H  0.30488473  0.31989978  0.97983302     0.12000
H758        H  0.35342078  0.39277289  0.95628103     0.08600
H759        H  0.32163768  0.38377305  0.93454877     0.11300
C760        C  0.20424947  0.42706294  0.82066451    -0.03300
C761        C  0.18934612  0.43871076  0.81886226    -0.05900
C762        C  0.20059760  0.46512894  0.81782716    -0.20900
C763        C  0.22701741  0.48068732  0.81873242     0.24800
C764        C  0.24203467  0.46905358  0.82015641    -0.18500
C765        C  0.23076801  0.44257811  0.82114237    -0.08500
C766        C  0.23802918  0.50879361  0.81773619    -0.18800
C767        C  0.26112205  0.52554742  0.82392905    -0.23600
C768        C  0.27280111  0.55375036  0.82310008     0.26800
C769        C  0.29883085  0.56846585  0.82646555    -0.20300
C770        C  0.31100844  0.59490953  0.82605206    -0.10000
C771        C  0.29749281  0.60759469  0.82240394    -0.10500
C772        C  0.27132045  0.59297694  0.81920287    -0.03400
C773        C  0.25907826  0.56633391  0.81952169    -0.18500
H774        H  0.16886486  0.42740722  0.81833694     0.10500
H775        H  0.18856233  0.47346514  0.81653789     0.10600
H776        H  0.26250822  0.48020484  0.82027666     0.10300
H777        H  0.24284594  0.43428285  0.82234977     0.11400
H778        H  0.22631483  0.51562158  0.81201599     0.11500
H779        H  0.27241919  0.51840001  0.82990874     0.13400
H780        H  0.30991131  0.55945305  0.82937049     0.09900
H781        H  0.33115197  0.60541073  0.82871658     0.12000
H782        H  0.26031638  0.60209914  0.81641471     0.08600
H783        H  0.23888738  0.55586618  0.81720624     0.11300
C784        C  0.55061664  0.11145595  0.49731595    -0.03300
C785        C  0.53628747  0.12377947  0.49845149    -0.05900
C786        C  0.54800548  0.15021588  0.49737923    -0.20900
C787        C  0.57434160  0.16506869  0.49521656     0.24800
C788        C  0.58867898  0.15272482  0.49377812    -0.18500
C789        C  0.57695590  0.12625955  0.49490567    -0.08500
C790        C  0.58584981  0.19318661  0.49409398    -0.18800
C791        C  0.61056699  0.20960323  0.49715644    -0.23600
C792        C  0.62269549  0.23782296  0.49630148     0.26800
C793        C  0.64920633  0.25210309  0.49752031    -0.20300
C794        C  0.66179736  0.27857070  0.49718542    -0.10000
C795        C  0.64822050  0.29162624  0.49567846    -0.10500
C796        C  0.62165873  0.27743852  0.49439930    -0.03400
C797        C  0.60900332  0.25084830  0.49472125    -0.18500
H798        H  0.51593893  0.11300037  0.50027398     0.10500
H799        H  0.53644869  0.15911448  0.49838360     0.10600
H800        H  0.60888866  0.16325482  0.49148215     0.10300
H801        H  0.58852499  0.11739416  0.49377456     0.11400
H802        H  0.57315822  0.20027761  0.49101393     0.11500
H803        H  0.62285249  0.20216602  0.50066073     0.13400
H804        H  0.66030997  0.24273586  0.49876947     0.09900
H805        H  0.68227461  0.28878005  0.49819351     0.12000
H806        H  0.61059735  0.28685756  0.49323827     0.08600
H807        H  0.58856712  0.24085019  0.49396869     0.11300
C808        C  0.37654927  0.03966201  0.65324707    -0.03300
C809        C  0.38094009  0.01905186  0.65406874    -0.05900
C810        C  0.39228802  0.01367307  0.64031865    -0.20900
C811        C  0.39905978  0.02843769  0.62531859     0.24800
C812        C  0.39485851  0.04919126  0.62453278    -0.18500
C813        C  0.38375601  0.05472858  0.63833600    -0.08500
C814        C  0.41138956  0.02230241  0.61107927    -0.18800
C815        C  0.40993925  0.02792417  0.59451093    -0.23600
C816        C  0.42301510  0.02306106  0.58007419     0.26800
C817        C  0.42600216  0.03596641  0.56452431    -0.20300
C818        C  0.43888335  0.03283540  0.55074142    -0.10000
C819        C  0.44896327  0.01651278  0.55210701    -0.10500
C820        C  0.44534107  0.00298351  0.56749127    -0.03400
C821        C  0.43247275  0.00614565  0.58130148    -0.18500
H822        H  0.37583097  0.00718235  0.66541708     0.10500
H823        H  0.39561147  0.99779699  0.64134408     0.10600
H824        H  0.40059683  0.06156909  0.61344329     0.10300
H825        H  0.38078744  0.07081991  0.63729107     0.11400
H826        H  0.42174671  0.01272186  0.61454354     0.11500
H827        H  0.39912345  0.03715226  0.59128632     0.13400
H828        H  0.41873068  0.04891213  0.56312301     0.09900
H829        H  0.44120335  0.04348910  0.53906767     0.12000
H830        H  0.45266730  0.99009992  0.56894424     0.08600
H831        H  0.42995160  0.99515080  0.59279445     0.11300
C832        C  0.44078018  0.00331661  0.45546190    -0.03300
C833        C  0.42358058  0.01216559  0.45775884    -0.05900
C834        C  0.40646534  0.00922472  0.44475796    -0.20900
C835        C  0.40663209  0.99796805  0.42910332     0.24800
C836        C  0.42386652  0.98917164  0.42678587    -0.18500
C837        C  0.44068898  0.99174899  0.43985328    -0.08500
C838        C  0.38771533  0.99426374  0.41578086    -0.18800
C839        C  0.39227918  0.99423189  0.39889165    -0.23600
C840        C  0.37275366  0.98866551  0.38561424     0.26800
C841        C  0.38023002  0.99927920  0.36918083    -0.20300
C842        C  0.36224121  0.99338751  0.35620170    -0.10000
C843        C  0.33648992  0.97627231  0.35935269    -0.10500
C844        C  0.32907788  0.96556970  0.37580181    -0.03400
C845        C  0.34697140  0.97173357  0.38880229    -0.18500
H846        H  0.42310657  0.02102170  0.46968086     0.10500
H847        H  0.39312864  0.01586622  0.44689204     0.10600
H848        H  0.42397982  0.97973975  0.41506057     0.10300
H849        H  0.45368938  0.98470552  0.43770377     0.11400
H850        H  0.36975022  0.99215257  0.42003172     0.11500
H851        H  0.41112216  0.99897727  0.39457564     0.13400
H852        H  0.40005266  0.01216453  0.36638893     0.09900
H853        H  0.36854147  0.00180206  0.34363563     0.12000
H854        H  0.30937822  0.95230063  0.37865341     0.08600
H855        H  0.34064193  0.96264980  0.40117386     0.11300
C856        C  0.45940830  0.91197576  0.50654045    -0.03300
C857        C  0.45593464  0.89963149  0.52242965    -0.05900
C858        C  0.44395842  0.87313958  0.52338075    -0.20900
C859        C  0.43476030  0.85824414  0.50854461     0.24800
C860        C  0.43823262  0.87051002  0.49261458    -0.18500
C861        C  0.45046387  0.89706024  0.49163079    -0.08500
C862        C  0.42253433  0.83011049  0.51010305    -0.18800
C863        C  0.40444476  0.81387567  0.49927782    -0.23600
C864        C  0.39161404  0.78575314  0.50112739     0.26800
C865        C  0.36658435  0.77105702  0.49532625    -0.20300
C866        C  0.35392471  0.74458600  0.49661061    -0.10000
C867        C  0.36616557  0.73203472  0.50342052    -0.10500
C868        C  0.39142795  0.74672430  0.50896395    -0.03400
C869        C  0.40398503  0.77330031  0.50791750    -0.18500
H870        H  0.46263703  0.91045347  0.53417981     0.10500
H871        H  0.44170512  0.86422372  0.53579241     0.10600
H872        H  0.43199755  0.85969176  0.48084914     0.10300
H873        H  0.45293841  0.90589704  0.47917358     0.11400
H874        H  0.42757507  0.82259079  0.52112703     0.11500
H875        H  0.39758524  0.82138913  0.48927139     0.13400
H876        H  0.35668279  0.78012202  0.48990726     0.09900
H877        H  0.33455682  0.73393754  0.49208837     0.12000
H878        H  0.40146407  0.73769947  0.51420809     0.08600
H879        H  0.42349786  0.78400027  0.51211701     0.11300
C880        C  0.25187829  0.91692765  0.33654802    -0.03300
C881        C  0.24756712  0.89934937  0.34967482    -0.05900
C882        C  0.22460422  0.87650073  0.35054322    -0.20900
C883        C  0.20558412  0.87071160  0.33829215     0.24800
C884        C  0.20954061  0.88873698  0.32554941    -0.18500
C885        C  0.23247085  0.91149286  0.32464498    -0.08500
C886        C  0.18184848  0.84587980  0.33932825    -0.18800
C887        C  0.16666044  0.83478260  0.32573291    -0.23600
C888        C  0.14292011  0.81003666  0.32672796     0.26800
C889        C  0.12347271  0.80503055  0.31503243    -0.20300
C890        C  0.10075368  0.78197604  0.31551886    -0.10000
C891        C  0.09713592  0.76326543  0.32760833    -0.10500
C892        C  0.11684327  0.76810606  0.33911865    -0.03400
C893        C  0.13952864  0.79123109  0.33867367    -0.18500
H894        H  0.26205757  0.90302952  0.35911886     0.10500
H895        H  0.22187383  0.86308350  0.36062697     0.10600
H896        H  0.19498590  0.88557111  0.31631927     0.10300
H897        H  0.23496162  0.92481598  0.31455614     0.11400
H898        H  0.17709716  0.83632063  0.35166428     0.11500
H899        H  0.17131758  0.84422394  0.31336802     0.13400
H900        H  0.12575967  0.81914229  0.30560580     0.09900
H901        H  0.08604038  0.77886275  0.30640739     0.12000
H902        H  0.11480141  0.75401885  0.34847707     0.08600
H903        H  0.15445235  0.79407825  0.34749433     0.11300
C904        C  0.98508399  0.95230541  0.16273652    -0.03300
C905        C  0.99783339  0.93967361  0.16843519    -0.05900
C906        C  0.98541469  0.91314215  0.16908771    -0.20900
C907        C  0.96011368  0.89849835  0.16375561     0.24800
C908        C  0.94737026  0.91106745  0.15785169    -0.18500
C909        C  0.95969259  0.93765719  0.15742988    -0.08500
C910        C  0.94729908  0.87033872  0.16550599    -0.18800
C911        C  0.92763901  0.85406381  0.15568529    -0.23600
C912        C  0.91485367  0.82594844  0.15771594     0.26800
C913        C  0.90340997  0.81045378  0.14338927    -0.20300
C914        C  0.89050453  0.78397710  0.14492038    -0.10000
C915        C  0.88824284  0.77228459  0.16093251    -0.10500
C916        C  0.89959585  0.78780804  0.17531888    -0.03400
C917        C  0.91282176  0.81432053  0.17373160    -0.18500
H918        H  0.01732097  0.95029658  0.17272419     0.10500
H919        H  0.99563268  0.90399650  0.17381821     0.10600
H920        H  0.92768992  0.90047404  0.15401436     0.10300
H921        H  0.94927934  0.94674331  0.15299075     0.11400
H922        H  0.95511716  0.86276441  0.17480772     0.11500
H923        H  0.92134641  0.86144395  0.14524188     0.13400
H924        H  0.90450637  0.81888185  0.13093201     0.09900
H925        H  0.88191295  0.77266379  0.13357633     0.12000
H926        H  0.89815751  0.77946875  0.18784943     0.08600
H927        H  0.92084297  0.82563982  0.18514079     0.11300
C928        C  0.95972140  0.62626287  0.02183220    -0.03300
C929        C  0.96039967  0.64972766  0.02142007    -0.05900
C930        C  0.95174511  0.65773737  0.03534655    -0.20900
C931        C  0.94228297  0.64263315  0.05011310     0.24800
C932        C  0.94147476  0.61905578  0.05054593    -0.18500
C933        C  0.95017128  0.61102788  0.03658067    -0.08500
C934        C  0.93226011  0.65172195  0.06420873    -0.18800
C935        C  0.92777215  0.64233026  0.08033355    -0.23600
C936        C  0.91604519  0.65014183  0.09415640     0.26800
C937        C  0.91360040  0.63969144  0.11062453    -0.20300
C938        C  0.90119392  0.64491086  0.12375624    -0.10000
C939        C  0.89096473  0.66083242  0.12077428    -0.10500
C940        C  0.89396580  0.67185303  0.10445964    -0.03400
C941        C  0.90623093  0.66653694  0.09130361    -0.18500
H942        H  0.96755913  0.66199129  0.01028028     0.10500
H943        H  0.95239693  0.67583390  0.03454702     0.10600
H944        H  0.93365720  0.60639831  0.06140990     0.10300
H945        H  0.94922902  0.59279684  0.03730903     0.11400
H946        H  0.92882126  0.66703075  0.06093888     0.11500
H947        H  0.93276862  0.62809110  0.08372438     0.13400
H948        H  0.92090201  0.62703598  0.11327578     0.09900
H949        H  0.89926543  0.63610417  0.13618835     0.12000
H950        H  0.88625100  0.68412496  0.10168725     0.08600
H951        H  0.90725636  0.67498140  0.07891853     0.11300
C952        C  0.77982438  0.68017452  0.21568938    -0.03300
C953        C  0.79192811  0.69140816  0.23122502    -0.05900
C954        C  0.77788694  0.69157301  0.24535806    -0.20900
C955        C  0.75152536  0.68098733  0.24421647     0.24800
C956        C  0.73937080  0.66989130  0.22863467    -0.18500
C957        C  0.75339113  0.66942763  0.21454529    -0.08500
C958        C  0.73733476  0.68139039  0.25961450    -0.18800
C959        C  0.71545348  0.68178750  0.25865546    -0.23600
C960        C  0.70263207  0.68474871  0.27392779     0.26800
C961        C  0.68959720  0.69819845  0.27211008    -0.20300
C962        C  0.67835472  0.70261832  0.28627101    -0.10000
C963        C  0.67940487  0.69319052  0.30254728    -0.10500
C964        C  0.69142174  0.67866403  0.30428254    -0.03400
C965        C  0.70312564  0.67461393  0.29009817    -0.18500
H966        H  0.81222614  0.69958758  0.23259363     0.10500
H967        H  0.78768729  0.70009797  0.25723481     0.10600
H968        H  0.71901039  0.66100371  0.22738989     0.10300
H969        H  0.74351159  0.66050427  0.20278026     0.11400
H970        H  0.74619704  0.68337838  0.27206238     0.11500
H971        H  0.70788914  0.68245705  0.24615892     0.13400
H972        H  0.68874225  0.70596962  0.25976305     0.09900
H973        H  0.66902174  0.71368637  0.28449869     0.12000
H974        H  0.69247061  0.67115000  0.31667763     0.08600
H975        H  0.71250635  0.66359621  0.29179192     0.11300
C976        C  0.89229553  0.67435314  0.21775275    -0.03300
C977        C  0.90151386  0.65727862  0.21887210    -0.05900
C978        C  0.91629358  0.65804283  0.23286130    -0.20900
C979        C  0.92231473  0.67596096  0.24595224     0.24800
C980        C  0.91235933  0.69246178  0.24513785    -0.18500
C981        C  0.89763768  0.69173609  0.23116068    -0.08500
C982        C  0.93923141  0.67712925  0.26011417    -0.18800
C983        C  0.95425952  0.69869977  0.26870023    -0.23600
C984        C  0.97330593  0.70123570  0.28162029     0.26800
C985        C  0.99421198  0.72538866  0.28441695    -0.20300
C986        C  0.01294884  0.72886776  0.29616663    -0.10000
C987        C  0.01108212  0.70828929  0.30563493    -0.10500
C988        C  0.98983470  0.68412140  0.30316270    -0.03400
C989        C  0.97111108  0.68059508  0.29123580    -0.18500
H990        H  0.89750627  0.64344952  0.20886407     0.10500
H991        H  0.92348470  0.64494245  0.23328019     0.10600
H992        H  0.91572735  0.70587240  0.25530432     0.10300
H993        H  0.89040955  0.70480788  0.23089058     0.11400
H994        H  0.94092569  0.66043045  0.26243760     0.11500
H995        H  0.95424844  0.71595549  0.26513418     0.13400
H996        H  0.99625830  0.74161815  0.27729319     0.09900
H997        H  0.02893527  0.74780964  0.29782376     0.12000
H998        H  0.98778591  0.66792329  0.31031172     0.08600
H999        H  0.95488287  0.66179722  0.28974562     0.11300
C1000       C  0.70199062  0.39333086  0.16537570    -0.03300
C1001       C  0.72860472  0.40681815  0.16455483    -0.05900
C1002       C  0.74191580  0.43330887  0.16456645    -0.20900
C1003       C  0.72910226  0.44712448  0.16553868     0.24800
C1004       C  0.70239511  0.43368284  0.16607138    -0.18500
C1005       C  0.68902720  0.40708855  0.16599547    -0.08500
C1006       C  0.74451239  0.47537415  0.16561936    -0.18800
C1007       C  0.73582192  0.49095040  0.17050421    -0.23600
C1008       C  0.75180553  0.51913698  0.17061850     0.26800
C1009       C  0.73992168  0.53383237  0.16941954    -0.20300
C1010       C  0.75418710  0.56035383  0.16938508    -0.10000
C1011       C  0.78075635  0.57286735  0.17070784    -0.10500
C1012       C  0.79264091  0.55815434  0.17228942    -0.03400
C1013       C  0.77836788  0.53162968  0.17231050    -0.18500
H1014       H  0.73926970  0.39693044  0.16393138     0.10500
H1015       H  0.76242835  0.44307474  0.16397930     0.10600
H1016       H  0.69163402  0.44344149  0.16633549     0.10300
H1017       H  0.66852153  0.39732352  0.16651420     0.11400
H1018       H  0.76412019  0.48357948  0.16159882     0.11500
H1019       H  0.71617896  0.48306116  0.17430417     0.13400
H1020       H  0.71949318  0.52474175  0.16828662     0.09900
H1021       H  0.74437370  0.57104273  0.16820384     0.12000
H1022       H  0.81303843  0.56713236  0.17353669     0.08600
H1023       H  0.78824684  0.52109637  0.17392136     0.11300
C1024       C  0.10637502  0.55021867  0.50099129    -0.03300
C1025       C  0.11806554  0.54777699  0.51586891    -0.05900
C1026       C  0.14450631  0.56040825  0.51725388    -0.20900
C1027       C  0.15990479  0.57613344  0.50395781     0.24800
C1028       C  0.14822295  0.57840370  0.48897938    -0.18500
C1029       C  0.12177293  0.56555013  0.48751730    -0.08500
C1030       C  0.18797731  0.58912565  0.50596408    -0.18800
C1031       C  0.20408588  0.61067770  0.49761239    -0.23600
C1032       C  0.23216599  0.62396895  0.49968208     0.26800
C1033       C  0.24629846  0.64984041  0.49551142    -0.20300
C1034       C  0.27271960  0.66305061  0.49699260    -0.10000
C1035       C  0.28577247  0.65062131  0.50248174    -0.10500
C1036       C  0.27166854  0.62460111  0.50642762    -0.03400
C1037       C  0.24518314  0.61141533  0.50506175    -0.18500
H1038       H  0.10677089  0.53592844  0.52642058     0.10500
H1039       H  0.15296975  0.55806383  0.52883755     0.10600
H1040       H  0.15938685  0.58969823  0.47822228     0.10300
H1041       H  0.11337495  0.56774469  0.47585327     0.11400
H1042       H  0.19539898  0.58127312  0.51532460     0.11500
H1043       H  0.19644074  0.61978719  0.48949774     0.13400
H1044       H  0.23683556  0.65994410  0.49116979     0.09900
H1045       H  0.28291968  0.68301921  0.49371654     0.12000
H1046       H  0.28108011  0.61438439  0.51061461     0.08600
H1047       H  0.23510704  0.59133363  0.50791769     0.11300
C1048       C  0.01472232  0.56795440  0.44638317    -0.03300
C1049       C  0.99784508  0.57741225  0.44523955    -0.05900
C1050       C  0.99851293  0.59192271  0.43107880    -0.20900
C1051       C  0.01616894  0.59751109  0.41785085     0.24800
C1052       C  0.03284900  0.58777819  0.41890326    -0.18500
C1053       C  0.03219153  0.57330261  0.43303508    -0.08500
C1054       C  0.01652155  0.61327889  0.40311338    -0.18800
C1055       C  0.03732130  0.62709519  0.39346827    -0.23600
C1056       C  0.03889000  0.64443375  0.37948051     0.26800
C1057       C  0.06288069  0.66442995  0.37499406    -0.20300
C1058       C  0.06554199  0.68165231  0.36221231    -0.10000
C1059       C  0.04424892  0.67913554  0.35339232    -0.10500
C1060       C  0.02021223  0.65864452  0.35747583    -0.03400
C1061       C  0.01752142  0.64144798  0.37043469    -0.18500
H1062       H  0.98396871  0.57342294  0.45519758     0.10500
H1063       H  0.98528360  0.59897813  0.43051818     0.10600
H1064       H  0.04613018  0.59082559  0.40873620     0.10300
H1065       H  0.04524941  0.56604144  0.43338394     0.11400
H1066       H  0.99970274  0.61484432  0.40095499     0.11500
H1067       H  0.05479141  0.62732480  0.39673070     0.13400
H1068       H  0.07967023  0.66700685  0.38161480     0.09900
H1069       H  0.08438675  0.69704049  0.35929595     0.12000
H1070       H  0.00346199  0.65610122  0.35084373     0.08600
H1071       H  0.99878798  0.62581108  0.37319501     0.11300
C1072       C  0.99204226  0.43426394  0.54008601    -0.03300
C1073       C  0.97173961  0.40933931  0.53837152    -0.05900
C1074       C  0.96628601  0.39143257  0.55139064    -0.20900
C1075       C  0.98084876  0.39801161  0.56646655     0.24800
C1076       C  0.00175138  0.42269186  0.56789747    -0.18500
C1077       C  0.00718215  0.44058904  0.55490625    -0.08500
C1078       C  0.97368904  0.37857646  0.58025591    -0.18800
C1079       C  0.98043049  0.38431237  0.59685576    -0.23600
C1080       C  0.97284708  0.36505574  0.61078401     0.26800
C1081       C  0.98734505  0.37170470  0.62588011    -0.20300
C1082       C  0.98086140  0.35438516  0.63939698    -0.10000
C1083       C  0.95945069  0.33004640  0.63824913    -0.10500
C1084       C  0.94463146  0.32352266  0.62326006    -0.03400
C1085       C  0.95123181  0.34079470  0.60968306    -0.18500
H1086       H  0.95973546  0.40375839  0.52710376     0.10500
H1087       H  0.95028655  0.37250280  0.54983024     0.10600
H1088       H  0.01413772  0.42835164  0.57893839     0.10300
H1089       H  0.02318015  0.45948855  0.55656023     0.11400
H1090       H  0.96191520  0.35891980  0.57653585     0.11500
H1091       H  0.99218111  0.40395349  0.60059674     0.13400
H1092       H  0.00389063  0.39033555  0.62717441     0.09900
H1093       H  0.99260018  0.36016208  0.65079807     0.12000
H1094       H  0.92792749  0.30501571  0.62197034     0.08600
H1095       H  0.93903186  0.33514944  0.59853853     0.11300
C1096       C  0.00618178  0.56207438  0.54479256    -0.03300
C1097       C  0.01417465  0.56032787  0.56141082    -0.05900
C1098       C  0.01116483  0.57357987  0.57501653    -0.20900
C1099       C  0.00007306  0.58879198  0.57235098     0.24800
C1100       C  0.99310076  0.59139659  0.55556545    -0.18500
C1101       C  0.99595867  0.57804468  0.54200301    -0.08500
C1102       C  0.99597269  0.60141432  0.58737429    -0.18800
C1103       C  0.97877832  0.60927632  0.58752273    -0.23600
C1104       C  0.97298848  0.62018254  0.60278216     0.26800
C1105       C  0.95021385  0.62077589  0.60292031    -0.20300
C1106       C  0.94367563  0.63060699  0.61694389    -0.10000
C1107       C  0.95989689  0.64031916  0.63117965    -0.10500
C1108       C  0.98286628  0.64000815  0.63099661    -0.03400
C1109       C  0.98941393  0.63015414  0.61694348    -0.18500
H1110       H  0.02219775  0.54826577  0.56399479     0.10500
H1111       H  0.01699854  0.57146029  0.58776734     0.10600
H1112       H  0.98548413  0.60370617  0.55274721     0.10300
H1113       H  0.98994990  0.58012118  0.52930411     0.11400
H1114       H  0.00624099  0.60251346  0.59901306     0.11500
H1115       H  0.96706572  0.60617626  0.57629245     0.13400
H1116       H  0.93728110  0.61342207  0.59215412     0.09900
H1117       H  0.92589847  0.63064387  0.61656827     0.12000
H1118       H  0.99591614  0.64751362  0.64168230     0.08600
H1119       H  0.00748480  0.63079256  0.61721153     0.11300
C1120       C  0.90840561  0.46495789  0.49121047    -0.03300
C1121       C  0.89752840  0.48037775  0.49403148    -0.05900
C1122       C  0.87119691  0.46993215  0.49423512    -0.20900
C1123       C  0.85508638  0.44382987  0.49177685     0.24800
C1124       C  0.86594421  0.42847976  0.48851942    -0.18500
C1125       C  0.89228149  0.43891826  0.48831765    -0.08500
C1126       C  0.82715144  0.43342049  0.49226312    -0.18800
C1127       C  0.81067032  0.40913065  0.49649327    -0.23600
C1128       C  0.78251994  0.39744204  0.49681055     0.26800
C1129       C  0.76809258  0.37116061  0.49950359    -0.20300
C1130       C  0.74166668  0.35877624  0.49948353    -0.10000
C1131       C  0.72879991  0.37233924  0.49682856    -0.10500
C1132       C  0.74313288  0.39876997  0.49451367    -0.03400
C1133       C  0.76970329  0.41121860  0.49448102    -0.18500
H1134       H  0.90935722  0.50055185  0.49623950     0.10500
H1135       H  0.86338012  0.48223492  0.49656369     0.10600
H1136       H  0.85423781  0.40844586  0.48587339     0.10300
H1137       H  0.89999816  0.42655957  0.48589390     0.11400
H1138       H  0.82038916  0.44647763  0.48946444     0.11500
H1139       H  0.81812083  0.39680233  0.49992305     0.13400
H1140       H  0.77730418  0.36002248  0.50144277     0.09900
H1141       H  0.73133226  0.33842646  0.50145204     0.12000
H1142       H  0.73384497  0.40981991  0.49252394     0.08600
H1143       H  0.77986246  0.43152818  0.49261480     0.11300
C1144       C  0.41847999  0.41229688  0.99146941    -0.03300
C1145       C  0.42438358  0.42829413  0.97711422    -0.05900
C1146       C  0.44782969  0.45057679  0.97593839    -0.20900
C1147       C  0.46597607  0.45729384  0.98897824     0.24800
C1148       C  0.46013000  0.44124432  0.00332419    -0.18500
C1149       C  0.43670551  0.41897248  0.00450235    -0.08500
C1150       C  0.49007572  0.48182595  0.98758499    -0.18800
C1151       C  0.51152866  0.48687037  0.99590162    -0.23600
C1152       C  0.53529239  0.51187599  0.99530183     0.26800
C1153       C  0.55344562  0.51763999  0.00821756    -0.20300
C1154       C  0.57570424  0.54118412  0.00855609    -0.10000
C1155       C  0.58043827  0.55949984  0.99587098    -0.10500
C1156       C  0.56261210  0.55347303  0.98265437    -0.03400
C1157       C  0.54034604  0.52993806  0.98232532    -0.18500
H1158       H  0.41081880  0.42375559  0.96683496     0.10500
H1159       H  0.45177752  0.46268453  0.96481545     0.10600
H1160       H  0.47318619  0.44608575  0.01393373     0.10300
H1161       H  0.43274247  0.40722566  0.01581735     0.11400
H1162       H  0.48976976  0.49612466  0.97944134     0.11500
H1163       H  0.51169295  0.47237221  0.00393080     0.13400
H1164       H  0.55020712  0.50402466  0.01826595     0.09900
H1165       H  0.58909004  0.54507603  0.01886762     0.12000
H1166       H  0.56573104  0.56701409  0.97258584     0.08600
H1167       H  0.52739955  0.52607443  0.97177358     0.11300
C1168       C  0.65719579  0.62177799  0.02650970    -0.03300
C1169       C  0.65347817  0.60318085  0.03871563    -0.05900
C1170       C  0.66908716  0.60937108  0.05311327    -0.20900
C1171       C  0.68888114  0.63425841  0.05576336     0.24800
C1172       C  0.69263860  0.65300194  0.04358564    -0.18500
C1173       C  0.67701166  0.64676209  0.02909115    -0.08500
C1174       C  0.70459875  0.63947871  0.07152280    -0.18800
C1175       C  0.72677793  0.66087403  0.07442742    -0.23600
C1176       C  0.74262745  0.66436913  0.08986311     0.26800
C1177       C  0.76887936  0.68084549  0.08884987    -0.20300
C1178       C  0.78463254  0.68345609  0.10269292    -0.10000
C1179       C  0.77442615  0.66978670  0.11797903    -0.10500
C1180       C  0.74801013  0.65414873  0.11927467    -0.03400
C1181       C  0.73226217  0.65152773  0.10541744    -0.18500
H1182       H  0.63846321  0.58373921  0.03718846     0.10500
H1183       H  0.66564753  0.59452286  0.06225164     0.10600
H1184       H  0.70726383  0.67252462  0.04520657     0.10300
H1185       H  0.68030400  0.66160922  0.02000467     0.11400
H1186       H  0.69803489  0.62414795  0.08080882     0.11500
H1187       H  0.73469125  0.67561694  0.06471677     0.13400
H1188       H  0.77734375  0.69124075  0.07711488     0.09900
H1189       H  0.80485639  0.69584151  0.10128686     0.12000
H1190       H  0.73946876  0.64359197  0.13093629     0.08600
H1191       H  0.71204943  0.63945558  0.10698598     0.11300
C1192       C  0.74376461  0.09564690  0.68091697    -0.03300
C1193       C  0.76248683  0.10038932  0.69323828    -0.05900
C1194       C  0.78548246  0.12328784  0.69312227    -0.20900
C1195       C  0.79036854  0.14191559  0.68067692     0.24800
C1196       C  0.77130409  0.13749233  0.66867901    -0.18500
C1197       C  0.74836621  0.11459191  0.66875950    -0.08500
C1198       C  0.81542559  0.16563751  0.68078526    -0.18800
C1199       C  0.82526522  0.18112516  0.66709066    -0.23600
C1200       C  0.85064088  0.20439050  0.66707222     0.26800
C1201       C  0.85555442  0.22360666  0.65511042    -0.20300
C1202       C  0.87925865  0.24567903  0.65449674    -0.10000
C1203       C  0.89864951  0.24896896  0.66582005    -0.10500
C1204       C  0.89386859  0.22952211  0.67759827    -0.03400
C1205       C  0.87020429  0.20744443  0.67817737    -0.18500
H1206       H  0.75956592  0.08627444  0.70283164     0.10500
H1207       H  0.79970018  0.12628313  0.70263241     0.10600
H1208       H  0.77376524  0.15163253  0.65927777     0.10300
H1209       H  0.73423786  0.11175263  0.65922816     0.11400
H1210       H  0.82630890  0.17004888  0.69256121     0.11500
H1211       H  0.81445168  0.17690096  0.65530738     0.13400
H1212       H  0.84090688  0.22162617  0.64629436     0.09900
H1213       H  0.88228747  0.26025505  0.64525451     0.12000
H1214       H  0.90848900  0.23124738  0.68633381     0.08600
H1215       H  0.86757489  0.19271281  0.68713010     0.11300
C1216       C  0.66467200  0.03687901  0.65117808    -0.03300
C1217       C  0.64281940  0.01298115  0.64940372    -0.05900
C1218       C  0.62665415  0.00780825  0.63535491    -0.20900
C1219       C  0.63199072  0.02628694  0.62269880     0.24800
C1220       C  0.65366659  0.05033960  0.62460779    -0.18500
C1221       C  0.66983978  0.05549469  0.63861894    -0.08500
C1222       C  0.61398042  0.02002158  0.60814697    -0.18800
C1223       C  0.62011352  0.03286972  0.59314569    -0.23600
C1224       C  0.60214837  0.02749452  0.57862657     0.26800
C1225       C  0.61170547  0.04077864  0.56313898    -0.20300
C1226       C  0.59555450  0.03734006  0.54935830    -0.10000
C1227       C  0.56939084  0.02045892  0.55073486    -0.10500
C1228       C  0.55984061  0.00688363  0.56611938    -0.03400
C1229       C  0.57592844  0.01040929  0.57991171    -0.18500
H1230       H  0.63817345  0.99821771  0.65885392     0.10500
H1231       H  0.60994910  0.98922567  0.63433192     0.10600
H1232       H  0.65806899  0.06547991  0.61555734     0.10300
H1233       H  0.68633639  0.07421135  0.63964191     0.11400
H1234       H  0.59530529  0.00373569  0.60991763     0.11500
H1235       H  0.63942264  0.04799793  0.59114857     0.13400
H1236       H  0.63174930  0.05411992  0.56174492     0.09900
H1237       H  0.60355051  0.04814399  0.53770175     0.12000
H1238       H  0.53976279  0.99382496  0.56767369     0.08600
H1239       H  0.56738963  0.99998409  0.59155055     0.11300
C1240       C  0.74633183  0.66441078  0.67142338    -0.03300
C1241       C  0.76366022  0.67589029  0.68492826    -0.05900
C1242       C  0.78719526  0.67703904  0.68462722    -0.20900
C1243       C  0.79392768  0.66661748  0.67092338     0.24800
C1244       C  0.77654694  0.65504512  0.65742502    -0.18500
C1245       C  0.75302840  0.65389279  0.65772496    -0.08500
C1246       C  0.81962251  0.66931603  0.67085866    -0.18800
C1247       C  0.82595446  0.65475086  0.66137846    -0.23600
C1248       C  0.85171689  0.65754361  0.66100869     0.26800
C1249       C  0.85732959  0.64514472  0.64799547    -0.20300
C1250       C  0.88095956  0.64653999  0.64730401    -0.10000
C1251       C  0.89953938  0.66024990  0.65973254    -0.10500
C1252       C  0.89403926  0.67283666  0.67268784    -0.03400
C1253       C  0.87043385  0.67147296  0.67337110    -0.18500
H1254       H  0.75917362  0.68420957  0.69568036     0.10500
H1255       H  0.80025387  0.68619717  0.69514483     0.10600
H1256       H  0.78113594  0.64744305  0.64635032     0.10300
H1257       H  0.74022022  0.64500672  0.64705607     0.11400
H1258       H  0.83362538  0.68394966  0.67905510     0.11500
H1259       H  0.81170864  0.63995526  0.65337312     0.13400
H1260       H  0.84331332  0.63422111  0.63832578     0.09900
H1261       H  0.88450683  0.63657023  0.63715066     0.12000
H1262       H  0.90790116  0.68358240  0.68247212     0.08600
H1263       H  0.86698797  0.68092625  0.68386483     0.11300
C1264       C  0.75590993  0.87546559  0.84608123    -0.03300
C1265       C  0.76778208  0.87434002  0.86127878    -0.05900
C1266       C  0.79424063  0.88607796  0.86228139    -0.20900
C1267       C  0.80952321  0.89956953  0.84824546     0.24800
C1268       C  0.79764906  0.90070341  0.83301757    -0.18500
C1269       C  0.77118876  0.88879512  0.83196715    -0.08500
C1270       C  0.83762321  0.91145363  0.84979450    -0.18800
C1271       C  0.85410627  0.93147063  0.84026742    -0.23600
C1272       C  0.88221461  0.94402959  0.84200152     0.26800
C1273       C  0.89690815  0.96934794  0.83665846    -0.20300
C1274       C  0.92335392  0.98190541  0.83772283    -0.10000
C1275       C  0.93590641  0.96931211  0.84386465    -0.10500
C1276       C  0.92125962  0.94382374  0.84903476    -0.03400
C1277       C  0.89469473  0.93132328  0.84818187    -0.18500
H1278       H  0.75661378  0.86406671  0.87235055     0.10500
H1279       H  0.80281927  0.88468586  0.87411083     0.10600
H1280       H  0.80863264  0.91025037  0.82173476     0.10300
H1281       H  0.76269082  0.88992418  0.82002900     0.11400
H1282       H  0.84484164  0.90426793  0.85977198     0.11500
H1283       H  0.84681834  0.94010210  0.83141693     0.13400
H1284       H  0.88786603  0.97954171  0.83169978     0.09900
H1285       H  0.93399380  0.00145397  0.83348879     0.12000
H1286       H  0.93032342  0.93355258  0.85379424     0.08600
H1287       H  0.88409655  0.91161763  0.85202550     0.11300
C1288       C  0.66548985  0.77824021  0.78829530    -0.03300
C1289       C  0.68535254  0.79171248  0.77659863    -0.05900
C1290       C  0.68980932  0.77917785  0.76325276    -0.20900
C1291       C  0.67446758  0.75291296  0.76112018     0.24800
C1292       C  0.65440645  0.73932217  0.77271426    -0.18500
C1293       C  0.64995479  0.75190236  0.78615138    -0.08500
C1294       C  0.68100944  0.74050825  0.74719118    -0.18800
C1295       C  0.66473443  0.71775895  0.74039063    -0.23600
C1296       C  0.67214603  0.70625152  0.72633317     0.26800
C1297       C  0.65363361  0.68969042  0.71477241    -0.20300
C1298       C  0.66013191  0.67893685  0.70123036    -0.10000
C1299       C  0.68526174  0.68419259  0.69914983    -0.10500
C1300       C  0.70365961  0.70026131  0.71100009    -0.03400
C1301       C  0.69720259  0.71116425  0.72443414    -0.18500
H1302       H  0.69771826  0.81199460  0.77783729     0.10500
H1303       H  0.70545663  0.79009204  0.75457348     0.10600
H1304       H  0.64254954  0.71896254  0.77177105     0.10300
H1305       H  0.63460834  0.74093745  0.79501301     0.11400
H1306       H  0.69992865  0.75128362  0.74179108     0.11500
H1307       H  0.64506776  0.70786527  0.74448678     0.13400
H1308       H  0.63414577  0.68535478  0.71607559     0.09900
H1309       H  0.64543674  0.66643114  0.69243179     0.12000
H1310       H  0.72315381  0.70459721  0.70984205     0.08600
H1311       H  0.71183666  0.72314231  0.73342352     0.11300
C1312       C  0.66709559  0.89902444  0.79625041    -0.03300
C1313       C  0.65860248  0.91618835  0.79995490    -0.05900
C1314       C  0.66182193  0.93481615  0.78803949    -0.20900
C1315       C  0.67300458  0.93629313  0.77203264     0.24800
C1316       C  0.68151184  0.91913435  0.76829405    -0.18500
C1317       C  0.67869265  0.90078484  0.78031776    -0.08500
C1318       C  0.67645241  0.95650836  0.75977648    -0.18800
C1319       C  0.67557462  0.95339179  0.74264987    -0.23600
C1320       C  0.67913821  0.97354486  0.73029571     0.26800
C1321       C  0.66714020  0.96655040  0.71426122    -0.20300
C1322       C  0.67100653  0.98497988  0.70200362    -0.10000
C1323       C  0.68748825  0.01081983  0.70538637    -0.10500
C1324       C  0.69947524  0.01784090  0.72147191    -0.03400
C1325       C  0.69526962  0.99942423  0.73383570    -0.18500
H1326       H  0.64976684  0.91543749  0.81215660     0.10500
H1327       H  0.65534444  0.94798976  0.79127062     0.10600
H1328       H  0.69080905  0.92018464  0.75624608     0.10300
H1329       H  0.68549551  0.88787536  0.77709629     0.11400
H1330       H  0.67845939  0.97395214  0.76505062     0.11500
H1331       H  0.67095377  0.93501066  0.73743839     0.13400
H1332       H  0.65476042  0.94672009  0.71119371     0.09900
H1333       H  0.66159894  0.97893140  0.68971545     0.12000
H1334       H  0.71227904  0.03759931  0.72447545     0.08600
H1335       H  0.70526294  0.00544230  0.74591913     0.11300
C1336       C  0.63376255  0.64464855  0.97118790    -0.03300
C1337       C  0.65039457  0.67060373  0.97392047    -0.05900
C1338       C  0.65413398  0.68836404  0.96118216    -0.20900
C1339       C  0.64159227  0.68068267  0.94532103     0.24800
C1340       C  0.62509164  0.65460619  0.94251420    -0.18500
C1341       C  0.62122531  0.63685230  0.95531725    -0.08500
C1342       C  0.64582305  0.70070497  0.93252055    -0.18800
C1343       C  0.63793343  0.69633690  0.91604890    -0.23600
C1344       C  0.64190763  0.71694522  0.90388314     0.26800
C1345       C  0.62546694  0.71110117  0.88983092    -0.20300
C1346       C  0.62811298  0.73007700  0.87840168    -0.10000
C1347       C  0.64739919  0.75535619  0.88072882    -0.10500
C1348       C  0.66434508  0.76105059  0.89448725    -0.03400
C1349       C  0.66174232  0.74209133  0.90586585    -0.18500
H1350       H  0.66023118  0.67729133  0.98603196     0.10500
H1351       H  0.66684040  0.70826635  0.96378534     0.10600
H1352       H  0.61467454  0.64764927  0.93067562     0.10300
H1353       H  0.60830580  0.61697717  0.95278295     0.11400
H1354       H  0.65568971  0.72007511  0.93714782     0.11500
H1355       H  0.62744279  0.67711221  0.91126536     0.13400
H1356       H  0.61023304  0.69185560  0.88785968     0.09900
H1357       H  0.61483377  0.72498053  0.86787378     0.12000
H1358       H  0.67969799  0.78022129  0.89649189     0.08600
H1359       H  0.67550776  0.74727146  0.91605857     0.11300
C1360       C  0.55766679  0.78493318  0.83246322    -0.03300
C1361       C  0.54528723  0.79905743  0.83473875    -0.05900
C1362       C  0.51899831  0.78766743  0.83275780    -0.20900
C1363       C  0.50437351  0.76186202  0.82857343     0.24800
C1364       C  0.51678225  0.74776588  0.82609341    -0.18500
C1365       C  0.54306963  0.75914293  0.82810597    -0.08500
C1366       C  0.47644715  0.75063212  0.82646366    -0.18800
C1367       C  0.45985551  0.72560311  0.82812459    -0.23600
C1368       C  0.43177931  0.71356914  0.82627385     0.26800
C1369       C  0.41750215  0.68696806  0.82608441    -0.20300
C1370       C  0.39111926  0.67441785  0.82479450    -0.10000
C1371       C  0.37815839  0.68812507  0.82371228    -0.10500
C1372       C  0.39235817  0.71478597  0.82381866    -0.03400
C1373       C  0.41885353  0.72739591  0.82510146    -0.18500
H1374       H  0.55591240  0.81898569  0.83807298     0.10500
H1375       H  0.51002658  0.79903518  0.83461355     0.10600
H1376       H  0.50644559  0.72806712  0.82225484     0.10300
H1377       H  0.55198135  0.74776496  0.82606675     0.11400
H1378       H  0.46963756  0.76371044  0.82388731     0.11500
H1379       H  0.46705012  0.71295330  0.83120030     0.13400
H1380       H  0.42680227  0.67576213  0.82698540     0.09900
H1381       H  0.38088781  0.65386456  0.82475575     0.12000
H1382       H  0.38301040  0.72595208  0.82304526     0.08600
H1383       H  0.42884151  0.74787988  0.82541946     0.11300
C1384       C  0.43974967  0.43933791  0.54810851    -0.03300
C1385       C  0.42198764  0.41380512  0.54471268    -0.05900
C1386       C  0.40771147  0.39741989  0.55804610    -0.20900
C1387       C  0.41146769  0.40605266  0.57504920     0.24800
C1388       C  0.42903877  0.43159182  0.57845311    -0.18500
C1389       C  0.44287458  0.44810678  0.56510651    -0.08500
C1390       C  0.39719582  0.38814169  0.58912593    -0.18800
C1391       C  0.40870317  0.38782427  0.60377138    -0.23600
C1392       C  0.39563693  0.36866249  0.61736270     0.26800
C1393       C  0.40747046  0.35580979  0.62409554    -0.20300
C1394       C  0.39604912  0.33812143  0.63728614    -0.10000
C1395       C  0.37294744  0.33356936  0.64443182    -0.10500
C1396       C  0.36122209  0.34674098  0.63785023    -0.03400
C1397       C  0.37232358  0.36391984  0.62423020    -0.18500
H1398       H  0.41907020  0.40652325  0.53174472     0.10500
H1399       H  0.39419594  0.37781407  0.55514877     0.10600
H1400       H  0.43199134  0.43880350  0.59144282     0.10300
H1401       H  0.45639361  0.46765229  0.56814890     0.11400
H1402       H  0.37764519  0.37361749  0.58687611     0.11500
H1403       H  0.42897197  0.40049255  0.60515750     0.13400
H1404       H  0.42550689  0.35933187  0.61902301     0.09900
H1405       H  0.40560463  0.32837094  0.64215587     0.12000
H1406       H  0.34341183  0.34356637  0.64311451     0.08600
H1407       H  0.36305846  0.37394300  0.61933819     0.11300
C1408       C  0.43557581  0.44614814  0.45019982    -0.03300
C1409       C  0.42710241  0.45822145  0.43873339    -0.05900
C1410       C  0.41145561  0.44503916  0.42495744    -0.20900
C1411       C  0.40413502  0.41954817  0.42205600     0.24800
C1412       C  0.41256997  0.40729063  0.43344033    -0.18500
C1413       C  0.42809536  0.42047415  0.44743284    -0.08500
C1414       C  0.38680679  0.40643853  0.40745472    -0.18800
C1415       C  0.38551886  0.38650625  0.39900577    -0.23600
C1416       C  0.36878483  0.37520963  0.38380402     0.26800
C1417       C  0.37617115  0.36464978  0.37054665    -0.20300
C1418       C  0.36121778  0.35495544  0.35578136    -0.10000
C1419       C  0.33835760  0.35531340  0.35409572    -0.10500
C1420       C  0.33067369  0.36521965  0.36764311    -0.03400
C1421       C  0.34562279  0.37495622  0.38230532    -0.18500
H1422       H  0.43239393  0.47793803  0.44045651     0.10500
H1423       H  0.40511786  0.45487543  0.41646206     0.10600
H1424       H  0.40680220  0.38745470  0.43178675     0.10300
H1425       H  0.43424755  0.41061451  0.45604528     0.11400
H1426       H  0.37583206  0.41481551  0.40273410     0.11500
H1427       H  0.39823299  0.37952498  0.40246590     0.13400
H1428       H  0.39380396  0.36439924  0.37145776     0.09900
H1429       H  0.36765597  0.34732612  0.34566261     0.12000
H1430       H  0.31309225  0.36559507  0.36693677     0.08600
H1431       H  0.33886123  0.38212855  0.39250863     0.11300
C1432       C  0.56316392  0.55858781  0.54614065    -0.03300
C1433       C  0.58889599  0.56585557  0.54436975    -0.05900
C1434       C  0.60632113  0.57983085  0.55723265    -0.20900
C1435       C  0.59850412  0.58685886  0.57219110     0.24800
C1436       C  0.57280758  0.58007541  0.57375955    -0.18500
C1437       C  0.55538349  0.56600808  0.56094104    -0.08500
C1438       C  0.61778417  0.60116056  0.58568589    -0.18800
C1439       C  0.61203469  0.60454630  0.60181542    -0.23600
C1440       C  0.63121882  0.61792323  0.61543921     0.26800
C1441       C  0.62459084  0.62799395  0.62939008    -0.20300
C1442       C  0.64139156  0.63950257  0.64300723    -0.10000
C1443       C  0.66519614  0.64099060  0.64308216    -0.10500
C1444       C  0.67192845  0.63101858  0.62905755    -0.03400
C1445       C  0.65512768  0.61956870  0.61539614    -0.18500
H1446       H  0.59557948  0.56051637  0.53310803     0.10500
H1447       H  0.62595704  0.58490438  0.55557090     0.10600
H1448       H  0.56583677  0.58562329  0.58471140     0.10300
H1449       H  0.53576911  0.56095720  0.56264775     0.11400
H1450       H  0.63750411  0.60881038  0.58215763     0.11500
H1451       H  0.59248277  0.59734338  0.60548950     0.13400
H1452       H  0.60625586  0.62684501  0.62979442     0.09900
H1453       H  0.63554890  0.64697717  0.65357277     0.12000
H1454       H  0.69006043  0.63173516  0.62871079     0.08600
H1455       H  0.66070639  0.61140093  0.60514065     0.11300
C1456       C  0.64343089  0.67661008  0.36133216    -0.03300
C1457       C  0.64634492  0.65519900  0.36330917    -0.05900
C1458       C  0.63682303  0.63973125  0.37785178    -0.20900
C1459       C  0.62384596  0.64507274  0.39057027     0.24800
C1460       C  0.62154475  0.66687813  0.38884973    -0.18500
C1461       C  0.63118823  0.68242002  0.37439630    -0.08500
C1462       C  0.61264402  0.62739579  0.40531821    -0.18800
C1463       C  0.59134009  0.62359885  0.41320444    -0.23600
C1464       C  0.57812417  0.60427298  0.42679506     0.26800
C1465       C  0.55208313  0.59478668  0.42908538    -0.20300
C1466       C  0.53867006  0.57654813  0.44161631    -0.10000
C1467       C  0.55104877  0.56752819  0.45236240    -0.10500
C1468       C  0.57725111  0.57726595  0.45026102    -0.03400
C1469       C  0.59068559  0.59547024  0.43759287    -0.18500
H1470       H  0.65586750  0.65029119  0.35358798     0.10500
H1471       H  0.63906304  0.62318539  0.37897191     0.10600
H1472       H  0.61239703  0.67206946  0.39866762     0.10300
H1473       H  0.62878252  0.69887381  0.37340834     0.11400
H1474       H  0.62084515  0.61567270  0.40867525     0.11500
H1475       H  0.58190677  0.63364209  0.40858445     0.13400
H1476       H  0.54198764  0.60135074  0.42102324     0.09900
H1477       H  0.51854070  0.56960462  0.44291431     0.12000
H1478       H  0.58738334  0.57087344  0.45841847     0.08600
H1479       H  0.61089484  0.60285674  0.43650208     0.11300
C1480       C  0.54524521  0.45029349  0.49522791    -0.03300
C1481       C  0.53175489  0.42362548  0.49551867    -0.05900
C1482       C  0.54456219  0.40985101  0.49552120    -0.20900
C1483       C  0.57114392  0.42230152  0.49510319     0.24800
C1484       C  0.58470527  0.44902087  0.49485437    -0.18500
C1485       C  0.57188498  0.46281543  0.49485530    -0.08500
C1486       C  0.58383952  0.40671556  0.49569363    -0.18800
C1487       C  0.60785824  0.41509751  0.49044263    -0.23600
C1488       C  0.62092382  0.39986440  0.49140765     0.26800
C1489       C  0.64748632  0.41263599  0.49036591    -0.20300
C1490       C  0.66074712  0.39934277  0.49129469    -0.10000
C1491       C  0.64773723  0.37280894  0.49313181    -0.10500
C1492       C  0.62109958  0.35992320  0.49389104    -0.03400
C1493       C  0.60782819  0.37324113  0.49301347    -0.18500
H1494       H  0.51123843  0.41332540  0.49587207     0.10500
H1495       H  0.53362064  0.38932772  0.49585592     0.10600
H1496       H  0.60518510  0.45946163  0.49510293     0.10300
H1497       H  0.58289348  0.48333187  0.49482351     0.11400
H1498       H  0.57268554  0.38757954  0.50062268     0.11500
H1499       H  0.61885676  0.43420918  0.48542220     0.13400
H1500       H  0.65808864  0.43307657  0.48897303     0.09900
H1501       H  0.68123376  0.40992182  0.49054286     0.12000
H1502       H  0.61042080  0.33947928  0.49517626     0.08600
H1503       H  0.58736872  0.36245267  0.49334030     0.11300
C1504       C  0.36674522  0.65112597  0.51029218    -0.03300
C1505       C  0.39279545  0.66399291  0.51413275    -0.05900
C1506       C  0.40616044  0.65077966  0.51545501    -0.20900
C1507       C  0.39396693  0.62447429  0.51271790     0.24800
C1508       C  0.36777488  0.61147517  0.50929058    -0.18500
C1509       C  0.35436202  0.62463679  0.50811192    -0.08500
C1510       C  0.40902099  0.61120621  0.51377425    -0.18800
C1511       C  0.40277250  0.58963252  0.50516260    -0.23600
C1512       C  0.41810380  0.57663659  0.50535488     0.26800
C1513       C  0.41564411  0.56075534  0.49156269    -0.20300
C1514       C  0.42940574  0.54795329  0.49115126    -0.10000
C1515       C  0.44565585  0.55028234  0.50471764    -0.10500
C1516       C  0.44783940  0.56580086  0.51872024    -0.03400
C1517       C  0.43430859  0.57895677  0.51901455    -0.18500
H1518       H  0.40292986  0.68432499  0.51605977     0.10500
H1519       H  0.42623768  0.66124157  0.51832705     0.10600
H1520       H  0.35748082  0.59110272  0.50767221     0.10300
H1521       H  0.33428423  0.61401866  0.50528635     0.11400
H1522       H  0.42661910  0.62044981  0.52096428     0.11500
H1523       H  0.38645045  0.58181492  0.49669506     0.13400
H1524       H  0.40314973  0.55839648  0.48095216     0.09900
H1525       H  0.42712799  0.53600357  0.48023427     0.12000
H1526       H  0.46020033  0.56796788  0.52936719     0.08600
H1527       H  0.43626072  0.59051240  0.53007171     0.11300
C1528       C  0.41293338  0.98129976  0.99927265    -0.03300
C1529       C  0.41840309  0.96745581  0.98729169    -0.05900
C1530       C  0.44160815  0.96795287  0.98776351    -0.20900
C1531       C  0.45979830  0.98206145  0.00028406     0.24800
C1532       C  0.45437946  0.99597016  0.01228881    -0.18500
C1533       C  0.43118345  0.99551357  0.01180166    -0.08500
C1534       C  0.48437220  0.98235833  0.99990964    -0.18800
C1535       C  0.50015088  0.98849740  0.01344610    -0.23600
C1536       C  0.52459852  0.98851924  0.01282095     0.26800
C1537       C  0.54354971  0.00319623  0.02476137    -0.20300
C1538       C  0.56695945  0.00406785  0.02442680    -0.10000
C1539       C  0.57187518  0.99011716  0.01216625    -0.10500
C1540       C  0.55262843  0.97485044  0.00053138    -0.03400
C1541       C  0.52924082  0.97394986  0.00089003    -0.18500
H1542       H  0.40485041  0.95636115  0.97744083     0.10500
H1543       H  0.44535215  0.95720239  0.97829650     0.10600
H1544       H  0.46809904  0.00770936  0.02183364     0.10300
H1545       H  0.42770180  0.00656388  0.02116685     0.11400
H1546       H  0.48935667  0.97699051  0.98789620     0.11500
H1547       H  0.49537012  0.99409491  0.02544641     0.13400
H1548       H  0.54037075  0.01434722  0.03422814     0.09900
H1549       H  0.58128794  0.01592970  0.03364780     0.12000
H1550       H  0.55560540  0.96357504  0.99106553     0.08600
H1551       H  0.51485799  0.96154965  0.99191865     0.11300
C1552       C  0.63117390  0.97007081  0.98262749    -0.03300
C1553       C  0.65575167  0.98086186  0.97578356    -0.05900
C1554       C  0.66065994  0.96969235  0.96172605    -0.20900
C1555       C  0.64131796  0.94713623  0.95464593     0.24800
C1556       C  0.61683354  0.93604962  0.96168873    -0.18500
C1557       C  0.61176612  0.94756502  0.97544967    -0.08500
C1558       C  0.64671291  0.93613387  0.93939634    -0.18800
C1559       C  0.63675649  0.91099839  0.93739609    -0.23600
C1560       C  0.64183162  0.89994961  0.92204321     0.26800
C1561       C  0.64551147  0.87906329  0.92393047    -0.20300
C1562       C  0.64959353  0.86783027  0.90955937    -0.10000
C1563       C  0.64921129  0.87678522  0.89299436    -0.10500
C1564       C  0.64521016  0.89753005  0.89109492    -0.03400
C1565       C  0.64183464  0.90920631  0.90550816    -0.18500
H1566       H  0.67100852  0.99828700  0.98100698     0.10500
H1567       H  0.67962641  0.97861406  0.95640044     0.10600
H1568       H  0.60147827  0.91889051  0.95625785     0.10300
H1569       H  0.59265358  0.93884313  0.98050024     0.11400
H1570       H  0.66008458  0.94905436  0.92996163     0.11500
H1571       H  0.62554864  0.89820688  0.94767362     0.13400
H1572       H  0.64535923  0.87152798  0.93656486     0.09900
H1573       H  0.65238423  0.85171098  0.91136639     0.12000
H1574       H  0.64475483  0.90474773  0.87846291     0.08600
H1575       H  0.63854641  0.92501065  0.90370874     0.11300
C1576       C  0.98428417  0.41023367  0.99128978    -0.03300
C1577       C  0.99735632  0.42743562  0.97793324    -0.05900
C1578       C  0.99648043  0.44991111  0.97624344    -0.20900
C1579       C  0.98270731  0.45597537  0.98788760     0.24800
C1580       C  0.96928317  0.43858894  0.00113587    -0.18500
C1581       C  0.97014789  0.41606345  0.00282377    -0.08500
C1582       C  0.98249846  0.48027074  0.98543882    -0.18800
C1583       C  0.97621119  0.49162896  0.99784085    -0.23600
C1584       C  0.97636654  0.51619347  0.99583942     0.26800
C1585       C  0.96602627  0.52376077  0.00913681    -0.20300
C1586       C  0.96616737  0.54681032  0.00832865    -0.10000
C1587       C  0.97674622  0.56310105  0.99416238    -0.10500
C1588       C  0.98702660  0.55557441  0.98075881    -0.03400
C1589       C  0.98690733  0.53245222  0.98157152    -0.18500
H1590       H  0.00835659  0.42360285  0.96874414     0.10500
H1591       H  0.00683050  0.46275759  0.96582541     0.10600
H1592       H  0.95773833  0.44194910  0.01009461     0.10300
H1593       H  0.95966280  0.40318911  0.01318552     0.11400
H1594       H  0.98838486  0.48920302  0.97296327     0.11500
H1595       H  0.97083153  0.48272931  0.01037052     0.13400
H1596       H  0.95781319  0.51177649  0.02030852     0.09900
H1597       H  0.95804640  0.55187361  0.01890708     0.12000
H1598       H  0.99542967  0.56767094  0.96967015     0.08600
H1599       H  0.99547715  0.52782698  0.97109784     0.11300
C1600       C  0.01680759  0.35483644  0.97121507    -0.03300
C1601       C  0.01840959  0.33255512  0.97224379    -0.05900
C1602       C  0.03193366  0.32730813  0.95989826    -0.20900
C1603       C  0.04394769  0.34403942  0.94614262     0.24800
C1604       C  0.04295221  0.36667036  0.94540630    -0.18500
C1605       C  0.02951134  0.37193227  0.95772496    -0.08500
C1606       C  0.05784489  0.33767524  0.93306443    -0.18800
C1607       C  0.06165183  0.34662522  0.91681319    -0.23600
C1608       C  0.07595717  0.34157035  0.90326464     0.26800
C1609       C  0.08135719  0.35540169  0.88788184    -0.20300
C1610       C  0.09489776  0.35189911  0.87472011    -0.10000
C1611       C  0.10343752  0.33436608  0.87650436    -0.10500
C1612       C  0.09783225  0.32022538  0.89180672    -0.03400
C1613       C  0.08421927  0.32373159  0.90503002    -0.18500
H1614       H  0.00903033  0.31901067  0.98251384     0.10500
H1615       H  0.03267960  0.30993910  0.96094376     0.10600
H1616       H  0.05280104  0.38063083  0.93546384     0.10300
H1617       H  0.02903705  0.38943318  0.95659921     0.11400
H1618       H  0.06451009  0.32493581  0.93700732     0.11500
H1619       H  0.05392335  0.35857858  0.91305787     0.13400
H1620       H  0.07525728  0.36920067  0.88606553     0.09900
H1621       H  0.09885666  0.36318579  0.86314805     0.12000
H1622       H  0.10401974  0.30649384  0.89359495     0.08600
H1623       H  0.08022921  0.31229206  0.91648406     0.11300
C1624       C  0.66101610  0.75434893  0.33013868    -0.03300
C1625       C  0.66606615  0.76777286  0.31459336    -0.05900
C1626       C  0.66810586  0.79165764  0.31404696    -0.20900
C1627       C  0.66509954  0.80272297  0.32897001     0.24800
C1628       C  0.66002152  0.78928869  0.34457802    -0.18500
C1629       C  0.65781191  0.76527245  0.34510170    -0.08500
C1630       C  0.66822939  0.82853317  0.32766753    -0.18800
C1631       C  0.65983551  0.83855095  0.33961161    -0.23600
C1632       C  0.66256346  0.86422149  0.33843764     0.26800
C1633       C  0.64893812  0.87032634  0.35013884    -0.20300
C1634       C  0.65099031  0.89420720  0.34995361    -0.10000
C1635       C  0.66682501  0.91272445  0.33803994    -0.10500
C1636       C  0.68049493  0.90671253  0.32625554    -0.03400
C1637       C  0.67852031  0.88277000  0.32648521    -0.18500
H1638       H  0.66863534  0.75992422  0.30280935     0.10500
H1639       H  0.67214642  0.80158348  0.30187980     0.10600
H1640       H  0.65835754  0.79733113  0.35651580     0.10300
H1641       H  0.65421460  0.75555132  0.35731828     0.11400
H1642       H  0.67690525  0.83905397  0.31602324     0.11500
H1643       H  0.64953360  0.82715971  0.35062190     0.13400
H1644       H  0.63661653  0.85653551  0.35954004     0.09900
H1645       H  0.64017782  0.89813098  0.35924677     0.12000
H1646       H  0.69299624  0.92060772  0.31698336     0.08600
H1647       H  0.68989280  0.87927510  0.31746853     0.11300
C1648       C  0.56369813  0.01003810  0.45361347    -0.03300
C1649       C  0.59015796  0.02612259  0.45348314    -0.05900
C1650       C  0.60487185  0.02502829  0.44005136    -0.20900
C1651       C  0.59351617  0.00770972  0.42657540     0.24800
C1652       C  0.56698893  0.99214208  0.42645428    -0.18500
C1653       C  0.55230530  0.99322458  0.43983816    -0.08500
C1654       C  0.60966146  0.00621823  0.41282095    -0.18800
C1655       C  0.60309067  0.98442308  0.40448838    -0.23600
C1656       C  0.61871784  0.98135127  0.39110794     0.26800
C1657       C  0.61416379  0.95678823  0.38778341    -0.20300
C1658       C  0.62754875  0.95244942  0.37501627    -0.10000
C1659       C  0.64573856  0.97257556  0.36503376    -0.10500
C1660       C  0.65030873  0.99726936  0.36824332    -0.03400
C1661       C  0.63695063  0.00165614  0.38120050    -0.18500
H1662       H  0.59953251  0.03944806  0.46381084     0.10500
H1663       H  0.62523754  0.03741537  0.44035043     0.10600
H1664       H  0.55743912  0.97923816  0.41596136     0.10300
H1665       H  0.53195495  0.98086344  0.43935148     0.11400
H1666       H  0.62795540  0.02287902  0.41038607     0.11500
H1667       H  0.58587839  0.96735269  0.40830376     0.13400
H1668       H  0.60013494  0.94079614  0.39512516     0.09900
H1669       H  0.62336875  0.93313856  0.37288690     0.12000
H1670       H  0.66414855  0.01316057  0.36075351     0.08600
H1671       H  0.64056704  0.02079573  0.38313771     0.11300
C1672       C  0.26083466  0.33675410  0.32249342    -0.03300
C1673       C  0.24426110  0.32566675  0.30854776    -0.05900
C1674       C  0.22096247  0.32503163  0.30804974    -0.20900
C1675       C  0.21376242  0.33568405  0.32134230     0.24800
C1676       C  0.23018382  0.34646337  0.33542839    -0.18500
C1677       C  0.25344485  0.34704461  0.33595028    -0.08500
C1678       C  0.18879714  0.33459681  0.32020794    -0.18800
C1679       C  0.18326362  0.35049991  0.32876520    -0.23600
C1680       C  0.15843437  0.34971316  0.32778364     0.26800
C1681       C  0.15225224  0.36162399  0.34079920    -0.20300
C1682       C  0.12928624  0.36162440  0.34048909    -0.10000
C1683       C  0.11189234  0.34976008  0.32706838    -0.10500
C1684       C  0.11821707  0.33816335  0.31385965    -0.03400
C1685       C  0.14124473  0.33819069  0.31416327    -0.18500
H1686       H  0.24920024  0.31734893  0.29802548     0.10500
H1687       H  0.20857995  0.31634678  0.29714202     0.10600
H1688       H  0.22506835  0.35406200  0.34625505     0.10300
H1689       H  0.26559601  0.35550279  0.34698150     0.11400
H1690       H  0.17477849  0.32036352  0.31176785     0.11500
H1691       H  0.19742493  0.36480573  0.33709850     0.13400
H1692       H  0.16519222  0.37082877  0.35136930     0.09900
H1693       H  0.12512865  0.37080427  0.35086445     0.12000
H1694       H  0.10540279  0.32909674  0.30321880     0.08600
H1695       H  0.14553466  0.32952313  0.30356404     0.11300
C1696       C  0.05417214  0.37467500  0.35350241    -0.03300
C1697       C  0.07436948  0.39293794  0.36335106    -0.05900
C1698       C  0.07000734  0.40558005  0.37667248    -0.20900
C1699       C  0.04535107  0.40019493  0.38070447     0.24800
C1700       C  0.02502904  0.38208980  0.37076819    -0.18500
C1701       C  0.02943794  0.36949599  0.35728043    -0.08500
C1702       C  0.04216072  0.41464052  0.39497312    -0.18800
C1703       C  0.02013469  0.40775087  0.40315823    -0.23600
C1704       C  0.01798123  0.42268839  0.41756694     0.26800
C1705       C  0.99796509  0.41059425  0.42934687    -0.20300
C1706       C  0.99538836  0.42407719  0.44302868    -0.10000
C1707       C  0.01272696  0.45005900  0.44515646    -0.10500
C1708       C  0.03254741  0.46221638  0.43321845    -0.03400
C1709       C  0.03507765  0.44879177  0.41956570    -0.18500
H1710       H  0.09370182  0.39760730  0.36074428     0.10500
H1711       H  0.08605838  0.41958732  0.38395254     0.10600
H1712       H  0.00579458  0.37781156  0.37314826     0.10300
H1713       H  0.01347221  0.35556407  0.34991890     0.11400
H1714       H  0.05928628  0.43120789  0.39943213     0.11500
H1715       H  0.00333348  0.39002899  0.39984666     0.13400
H1716       H  0.98436531  0.39058187  0.42803091     0.09900
H1717       H  0.97981489  0.41415054  0.45191864     0.12000
H1718       H  0.04608988  0.48227316  0.43430848     0.08600
H1719       H  0.05020304  0.45915464  0.41047041     0.11300
C1720       C  0.65876752  0.02367714  0.03428774    -0.03300
C1721       C  0.68383798  0.02900363  0.03185649    -0.05900
C1722       C  0.70238076  0.04249156  0.04419110    -0.20900
C1723       C  0.69626303  0.05067512  0.05933587     0.24800
C1724       C  0.67129923  0.04581718  0.06166286    -0.18500
C1725       C  0.65276345  0.03246785  0.04926130    -0.08500
C1726       C  0.71663450  0.06480707  0.07209040    -0.18800
C1727       C  0.71222797  0.06532358  0.08898303    -0.23600
C1728       C  0.73252119  0.07946590  0.10185074     0.26800
C1729       C  0.72568620  0.08507437  0.11774752    -0.20300
C1730       C  0.74408894  0.09891612  0.13008883    -0.10000
C1731       C  0.76982790  0.10737185  0.12686772    -0.10500
C1732       C  0.77662656  0.10107410  0.11117772    -0.03400
C1733       C  0.75819918  0.08720526  0.09882438    -0.18500
H1734       H  0.68920028  0.02272060  0.02040495     0.10500
H1735       H  0.72150991  0.04625484  0.04200100     0.10600
H1736       H  0.66603279  0.05259137  0.07289833     0.10300
H1737       H  0.63370841  0.02888877  0.05148194     0.11400
H1738       H  0.73585839  0.07460796  0.06725291     0.11500
H1739       H  0.69289898  0.05529660  0.09368235     0.13400
H1740       H  0.70606966  0.07911114  0.12052346     0.09900
H1741       H  0.73812841  0.10329230  0.14208603     0.12000
H1742       H  0.79623169  0.10708422  0.10834989     0.08600
H1743       H  0.76429391  0.08252506  0.08704127     0.11300
C1744       C  0.96000741  0.32995453  0.02170476    -0.03300
C1745       C  0.93675178  0.32691943  0.02743938    -0.05900
C1746       C  0.92329210  0.30976450  0.04061164    -0.20900
C1747       C  0.93321177  0.29595570  0.04870571     0.24800
C1748       C  0.95648116  0.29896499  0.04301320    -0.18500
C1749       C  0.96960762  0.31559197  0.02949602    -0.08500
C1750       C  0.91867309  0.27809911  0.06276355    -0.18800
C1751       C  0.92993017  0.27583166  0.07699415    -0.23600
C1752       C  0.91538192  0.25894780  0.09146002     0.26800
C1753       C  0.92294385  0.26716878  0.10835084    -0.20300
C1754       C  0.90963338  0.25161133  0.12224410    -0.10000
C1755       C  0.88904523  0.22717000  0.11948018    -0.10500
C1756       C  0.88179141  0.21869875  0.10255674    -0.03400
C1757       C  0.89465134  0.23455697  0.08866137    -0.18500
H1758       H  0.92879969  0.33759097  0.02156986     0.10500
H1759       H  0.90530686  0.30758831  0.04469977     0.10600
H1760       H  0.96432613  0.28817195  0.04883930     0.10300
H1761       H  0.98746238  0.31754144  0.02532543     0.11400
H1762       H  0.89812457  0.26797883  0.06195141     0.11500
H1763       H  0.95023340  0.28802730  0.07861068     0.13400
H1764       H  0.93897995  0.28581602  0.11078903     0.09900
H1765       H  0.91570225  0.25851684  0.13515920     0.12000
H1766       H  0.86595895  0.19993330  0.10008606     0.08600
H1767       H  0.88871056  0.22758493  0.07574644     0.11300
C1768       C  0.78711685  0.10479656  0.22014088    -0.03300
C1769       C  0.76180655  0.08597061  0.21737847    -0.05900
C1770       C  0.74827602  0.06811937  0.23012264    -0.20900
C1771       C  0.75951363  0.06915817  0.24602448     0.24800
C1772       C  0.78480918  0.08804800  0.24886606    -0.18500
C1773       C  0.79854750  0.10559653  0.23596805    -0.08500
C1774       C  0.74467200  0.04972505  0.25913691    -0.18800
C1775       C  0.74707731  0.05470200  0.27604606    -0.23600
C1776       C  0.73147468  0.03525572  0.28898053     0.26800
C1777       C  0.72398268  0.04259480  0.30390997    -0.20300
C1778       C  0.70904944  0.02455287  0.31623978    -0.10000
C1779       C  0.70179643  0.99886746  0.31402211    -0.10500
C1780       C  0.70976757  0.99165460  0.29918831    -0.03400
C1781       C  0.72438213  0.00962629  0.28678008    -0.18500
H1782       H  0.75260424  0.08477457  0.20524489     0.10500
H1783       H  0.72887433  0.05357578  0.22761763     0.10600
H1784       H  0.79413310  0.08894136  0.26088241     0.10300
H1785       H  0.81805460  0.11989470  0.23840812     0.11400
H1786       H  0.73015794  0.03120456  0.25464712     0.11500
H1787       H  0.75962752  0.07393240  0.28046733     0.13400
H1788       H  0.72941233  0.06229346  0.30591726     0.09900
H1789       H  0.70337720  0.03076326  0.32756134     0.12000
H1790       H  0.70462056  0.97205668  0.29709091     0.08600
H1791       H  0.73042733  0.00349041  0.27560473     0.11300
C1792       C  0.02743295  0.31970081  0.30178885    -0.03300
C1793       C  0.03111893  0.30305458  0.29125320    -0.05900
C1794       C  0.01324158  0.28840833  0.27886089    -0.20900
C1795       C  0.99134069  0.29019872  0.27643959     0.24800
C1796       C  0.98752952  0.30687610  0.28690990    -0.18500
C1797       C  0.00539229  0.32143838  0.29949032    -0.08500
C1798       C  0.97263670  0.27344639  0.26339569    -0.18800
C1799       C  0.95555272  0.27818283  0.25571472    -0.23600
C1800       C  0.93760410  0.26115684  0.24238689     0.26800
C1801       C  0.92848931  0.27130656  0.22990301    -0.20300
C1802       C  0.91173125  0.25580468  0.21713762    -0.10000
C1803       C  0.90344163  0.22968426  0.21672513    -0.10500
C1804       C  0.91225805  0.21947569  0.22941241    -0.03400
C1805       C  0.92905958  0.23496776  0.24209927    -0.18500
H1806       H  0.04776082  0.30105469  0.29267947     0.10500
H1807       H  0.01658343  0.27561257  0.27109148     0.10600
H1808       H  0.97057281  0.30833675  0.28570711     0.10300
H1809       H  0.00193216  0.33401013  0.30740582     0.11400
H1810       H  0.97403464  0.25713140  0.25930345     0.11500
H1811       H  0.95559891  0.29569219  0.25848867     0.13400
H1812       H  0.93456796  0.29135834  0.22992025     0.09900
H1813       H  0.90519768  0.26427276  0.20764256     0.12000
H1814       H  0.90610937  0.19941234  0.22960192     0.08600
H1815       H  0.93493565  0.22623253  0.25181499     0.11300
C1816       C  0.78648732  0.21587714  0.17598975    -0.03300
C1817       C  0.75987471  0.20179301  0.17674336    -0.05900
C1818       C  0.74548024  0.21392660  0.17618290    -0.20900
C1819       C  0.75721384  0.24044538  0.17501947     0.24800
C1820       C  0.78390847  0.25464522  0.17457609    -0.18500
C1821       C  0.79833448  0.24247300  0.17508855    -0.08500
C1822       C  0.74078232  0.25214775  0.17338858    -0.18800
C1823       C  0.74877838  0.27690353  0.17613439    -0.23600
C1824       C  0.73254644  0.28871817  0.17384923     0.26800
C1825       C  0.74450533  0.31515214  0.17196917    -0.20300
C1826       C  0.73032140  0.32732270  0.16990276    -0.10000
C1827       C  0.70367113  0.31338670  0.16977281    -0.10500
C1828       C  0.69159441  0.28689643  0.17175551    -0.03400
C1829       C  0.70583424  0.27468278  0.17383234    -0.18500
H1830       H  0.75005817  0.18127719  0.17739961     0.10500
H1831       H  0.72500791  0.20247169  0.17648018     0.10600
H1832       H  0.79385023  0.27505067  0.17327541     0.10300
H1833       H  0.81878062  0.25390184  0.17442080     0.11400
H1834       H  0.72129132  0.23960382  0.16962369     0.11500
H1835       H  0.76826583  0.28946585  0.17989547     0.13400
H1836       H  0.76499073  0.32648930  0.17201560     0.09900
H1837       H  0.74035669  0.34775464  0.16844562     0.12000
H1838       H  0.67111809  0.27558632  0.17188599     0.08600
H1839       H  0.69573317  0.25437483  0.17574087     0.11300
C1840       C  0.89374125  0.12386882  0.16619242    -0.03300
C1841       C  0.90778449  0.12437242  0.18067768    -0.05900
C1842       C  0.92346152  0.11365712  0.18012480    -0.20900
C1843       C  0.92515539  0.10169771  0.16522856     0.24800
C1844       C  0.91128614  0.10125859  0.15063975    -0.18500
C1845       C  0.89581990  0.11234128  0.15110585    -0.08500
C1846       C  0.94194681  0.09038641  0.16539451    -0.18800
C1847       C  0.93721376  0.06967860  0.15626715    -0.23600
C1848       C  0.95280177  0.05708488  0.15781180     0.26800
C1849       C  0.94131779  0.03085854  0.15499434    -0.20300
C1850       C  0.95525639  0.01828527  0.15655382    -0.10000
C1851       C  0.98120015  0.03175480  0.16068164    -0.10500
C1852       C  0.99279611  0.05812368  0.16324400    -0.03400
C1853       C  0.97878594  0.07064474  0.16184103    -0.18500
H1854       H  0.90683584  0.13324823  0.19247030     0.10500
H1855       H  0.93408151  0.11442388  0.19148880     0.10600
H1856       H  0.91265539  0.09273354  0.13880716     0.10300
H1857       H  0.88541929  0.11179033  0.13968386     0.11400
H1858       H  0.95749813  0.09812356  0.17451138     0.11500
H1859       H  0.92020826  0.06041771  0.14844927     0.13400
H1860       H  0.92138027  0.01998589  0.15177091     0.09900
H1861       H  0.94570803  0.99801649  0.15437997     0.12000
H1862       H  0.01275831  0.06916355  0.16633934     0.08600
H1863       H  0.98846229  0.09098218  0.16365222     0.11300
loop_ 
_geom_bond_atom_site_label_1 
_geom_bond_atom_site_label_2 
_geom_bond_distance 
_geom_bond_site_symmetry_2 
_ccdc_geom_bond_type 
O1           C17   1.276       .  A
O1           Zn7   2.023       .  S
C2           O18   1.275       .  A
C2           O15   1.276       .  A
C2         C1803   1.486       .  S
O3           C16   1.274       .  A
O3          Cd10   2.061       .  S
O4           C22   1.277       .  A
O4          Cd13   2.087       .  S
O5           C19   1.276       .  A
O5           Cd9   2.075       .  S
O6           C17   1.277       .  A
O6           Cd9   2.088       .  S
Zn7          O18   2.019       .  S
Zn7          O20   2.026       .  S
Zn7          O12   1.945       .  S
O8           C19   1.277       .  A
O8          Cd13   2.080       .  S
Cd9          O11   2.080       .  S
Cd9          O12   2.010       .  S
Cd10         O14   2.060       .  S
Cd10         O23   2.069       .  S
Cd10         O12   1.997       .  S
O11          C21   1.276       .  A
O12         Cd13   2.008       .  S
Cd13         O15   2.083       .  S
O14          C21   1.273       .  A
C16          O20   1.275       .  A
C16        C1768   1.477       .  S
C17        C1840   1.488       .  S
C19        C1755   1.479       .  S
C21        C1731   1.483       .  S
C22          O23   1.275       .  A
C22        C1816   1.487       .  S
C24        C1792   1.487       .  S
C24          N25   1.360       .  A
C24          N29   1.364       .  A
N25          C26   1.357       .  A
C26        C1683   1.485       .  S
C26          N27   1.356       .  A
N27          C28   1.359       .  A
C28        C1696   1.486       .  S
C28          N29   1.363       .  A
C30        C1779   1.482       .  S
C30          N31   1.361       .  A
C30          N35   1.363       .  A
N31          C32   1.357       .  A
C32        C1635   1.481       .  S
C32          N33   1.354       .  A
N33          C34   1.356       .  A
C34        C1659   1.483       .  S
C34          N35   1.361       .  A
C36        C1744   1.482       .  S
C36          N37   1.361       .  A
C36          N41   1.362   1_554  A
N37          C38   1.360   1_554  A
C38        C1576   1.489       .  S
C38          N39   1.359       .  A
N39          C40   1.360   1_655  A
C40        C1600   1.490       .  S
C40          N41   1.362   1_455  A
C42        C1720   1.482       .  S
C42          N43   1.359       .  A
C42          N47   1.360   1_545  A
N43          C44   1.359   1_545  A
C44        C1539   1.483       .  S
C44          N45   1.359   1_554  A
N45          C46   1.358       .  A
C46        C1552   1.477       .  S
C46          N47   1.358   1_556  A
O48          C64   1.274       .  A
O48         Zn54   2.010       .  S
C49          O65   1.274       .  A
C49          O62   1.277       .  A
C49        C1515   1.486       .  S
O50          C63   1.276       .  A
O50         Cd57   2.082       .  S
O51          C69   1.276       .  A
O51         Cd60   2.074       .  S
O52          C66   1.278       .  A
O52         Cd56   2.083       .  S
O53          C64   1.276       .  A
O53         Cd56   2.089       .  S
Zn54         O65   2.018       .  S
Zn54         O67   2.009       .  S
Zn54         O59   1.935       .  S
O55          C66   1.277       .  A
O55         Cd60   2.076       .  S
Cd56         O58   2.078       .  S
Cd56         O59   2.010       .  S
Cd57         O61   2.078       .  S
Cd57         O70   2.074       .  S
Cd57         O59   2.010       .  S
O58          C68   1.277       .  A
O59         Cd60   2.006       .  S
Cd60         O62   2.091       .  S
O61          C68   1.277       .  A
C63          O67   1.274       .  A
C63        C1467   1.483       .  S
C64        C1408   1.486       .  S
C66        C1384   1.483       .  S
C68        C1480   1.487       .  S
C69          O70   1.276       .  A
C69        C1432   1.484       .  S
O71          C87   1.275       .  A
O71         Zn77   2.027       .  S
C72          O88   1.274       .  A
C72          O85   1.276       .  A
C72        C1288   1.484       .  S
O73          C86   1.275       .  A
O73         Cd80   2.076       .  S
O74          C92   1.277       .  A
O74         Cd83   2.082       .  S
O75          C89   1.275       .  A
O75         Cd79   2.070       .  S
O76          C87   1.276       .  A
O76         Cd79   2.083       .  S
Zn77         O88   2.010       .  S
Zn77         O90   2.020       .  S
Zn77         O82   1.943       .  S
O78          C89   1.277       .  A
O78         Cd83   2.082       .  S
Cd79         O81   2.077       .  S
Cd79         O82   2.003       .  S
Cd80         O84   2.072       .  S
Cd80         O93   2.078       .  S
Cd80         O82   2.004       .  S
O81          C91   1.276       .  A
O82         Cd83   2.011       .  S
Cd83         O85   2.081       .  S
O84          C91   1.276       .  A
C86          O90   1.275       .  A
C86        C1312   1.482       .  S
C87        C1264   1.488       .  S
C89        C1347   1.485       .  S
C91        C1563   1.478       .  S
C92          O93   1.277       .  A
C92        C1360   1.487       .  S
C94        C1443   1.484       .  S
C94          N95   1.358       .  A
C94          N99   1.359       .  A
N95          C96   1.358       .  A
C96        C1240   1.484       .  S
C96          N97   1.359       .  A
N97          C98   1.360       .  A
C98        C1299   1.483       .  S
C98          N99   1.359       .  A
C100       C1216   1.485       .  S
C100        N101   1.358       .  A
C100        N105   1.360       .  A
N101        C102   1.357       .  A
C102       C1192   1.484       .  S
C102        N103   1.359       .  A
N103        C104   1.360       .  A
C104       C1323   1.483       .  S
C104        N105   1.361       .  A
C106       C1336   1.484       .  S
C106        N107   1.361       .  A
C106        N111   1.359       .  A
N107        C108   1.361   1_556  A
C108       C1168   1.486       .  S
C108        N109   1.359       .  A
N109        C110   1.358   1_554  A
C110       C1155   1.484       .  S
C110        N111   1.358       .  A
O112        C128   1.276       .  A
O112       Zn118   2.028       .  S
C113        O129   1.275       .  A
C113        O126   1.278   1_455  A
C113       C1707   1.486       .  S
O114        C127   1.274   1_655  A
O114       Cd121   2.070       .  S
O115        C133   1.278       .  A
O115       Cd124   2.088       .  S
O116        C130   1.276   1_455  A
O116       Cd120   2.071       .  S
O117        C128   1.276       .  A
O117       Cd120   2.079       .  S
Zn118       O129   2.012       .  S
Zn118       O131   2.018       .  S
Zn118       O123   1.941       .  S
O119        C130   1.277       .  A
O119       Cd124   2.085       .  S
Cd120       O122   2.079       .  S
Cd120       O123   2.001       .  S
Cd121       O125   2.064       .  S
Cd121       O134   2.063       .  S
Cd121       O123   1.999   1_655  S
O122        C132   1.276       .  A
O123       Cd124   2.010   1_455  S
Cd124       O126   2.088       .  S
O125        C132   1.275   1_655  A
C127        O131   1.275       .  A
C127       C1048   1.483       .  S
C128       C1024   1.485       .  S
C130       C1072   1.486       .  S
C132       C1096   1.482       .  S
C133        O134   1.274       .  A
C133       C1120   1.486       .  S
O135        C151   1.278       .  A
O135       Zn141   2.045       .  S
C136        O152   1.275       .  A
C136        O149   1.276       .  A
C136        C952   1.482       .  S
O137        C150   1.275       .  A
O137       Cd144   2.072       .  S
O138        C156   1.277       .  A
O138       Cd147   2.082       .  S
O139        C153   1.275       .  A
O139       Cd143   2.070       .  S
O140        C151   1.276       .  A
O140       Cd143   2.077       .  S
Zn141       O152   2.020       .  S
Zn141       O154   2.016       .  S
Zn141       O146   1.949       .  S
O142        C153   1.277       .  A
O142       Cd147   2.078       .  S
Cd143       O145   2.075       .  S
Cd143       O146   2.000       .  S
Cd144       O148   2.076       .  S
Cd144       O157   2.076       .  S
Cd144       O146   2.007       .  S
O145        C155   1.276       .  A
O146       Cd147   2.008       .  S
Cd147       O149   2.078       .  S
O148        C155   1.276       .  A
C150        O154   1.275       .  A
C150        C976   1.482       .  S
C151        C915   1.490       .  S
C153       C1179   1.485       .  S
C155        C939   1.485       .  S
C156        O157   1.276       .  A
C156       C1011   1.487       .  S
C158       C1456   1.485       .  S
C158        N159   1.361       .  A
C158        N163   1.364       .  A
N159        C160   1.357       .  A
C160       C1624   1.479       .  S
C160        N161   1.354       .  A
N161        C162   1.355       .  A
C162        C963   1.479       .  S
C162        N163   1.361       .  A
C164        C987   1.482       .  S
C164        N165   1.358       .  A
C164        N169   1.362       .  A
N165        C166   1.355       .  A
C166        C891   1.481       .  S
C166        N167   1.355       .  A
N167        C168   1.358       .  A
C168       C1059   1.482       .  S
C168        N169   1.362       .  A
O170        C186   1.276   1_565  A
O170       Zn176   2.023       .  S
C171        O187   1.277       .  A
C171        O184   1.276       .  A
C171        C856   1.490       .  S
O172        C185   1.275       .  A
O172       Cd179   2.071       .  S
O173        C191   1.276   1_565  A
O173       Cd182   2.076       .  S
O174        C188   1.277       .  A
O174       Cd178   2.082       .  S
O175        C186   1.276       .  A
O175       Cd178   2.080       .  S
Zn176       O187   2.042       .  S
Zn176       O189   2.016       .  S
Zn176       O181   1.947   1_565  S
O177        C188   1.275       .  A
O177       Cd182   2.061   1_545  S
Cd178       O180   2.084       .  S
Cd178       O181   2.012       .  S
Cd179       O183   2.073       .  S
Cd179       O192   2.075       .  S
Cd179       O181   2.005       .  S
O180        C190   1.277       .  A
O181       Cd182   1.999   1_545  S
Cd182       O184   2.076       .  S
O183        C190   1.276       .  A
C185        O189   1.275   1_545  A
C185        C832   1.479       .  S
C186       C1648   1.486       .  S
C188       C1227   1.483       .  S
C190        C784   1.487       .  S
C191        O192   1.276       .  A
C191        C819   1.486       .  S
O193        C209   1.275       .  A
O193       Zn199   2.019       .  S
C194        O210   1.275       .  A
C194        O207   1.277       .  A
C194        C664   1.487       .  S
O195        C208   1.276       .  A
O195       Cd202   2.077       .  S
O196        C214   1.277       .  A
O196       Cd205   2.086       .  S
O197        C211   1.277       .  A
O197       Cd201   2.079       .  S
O198        C209   1.277       .  A
O198       Cd201   2.089       .  S
Zn199       O210   2.025       .  S
Zn199       O212   2.018       .  S
Zn199       O204   1.946       .  S
O200        C211   1.276       .  A
O200       Cd205   2.072       .  S
Cd201       O203   2.092       .  S
Cd201       O204   2.012       .  S
Cd202       O206   2.075       .  S
Cd202       O215   2.078       .  S
Cd202       O204   2.003       .  S
O203        C213   1.278       .  A
O204       Cd205   2.010       .  S
Cd205       O207   2.086       .  S
O206        C213   1.276       .  A
C208        O212   1.275       .  A
C208        C699   1.484       .  S
C209        C723   1.486       .  S
C211        C736   1.484       .  S
C213        C760   1.490       .  S
C214        O215   1.277       .  A
C214       C1611   1.489       .  S
C216       C1395   1.481       .  S
C216        N217   1.362       .  A
C216        N221   1.359       .  A
N217        C218   1.362       .  A
C218        C712   1.485       .  S
C218        N219   1.360       .  A
N219        C220   1.358       .  A
C220        C640   1.485       .  S
C220        N221   1.357       .  A
C222       C1083   1.486       .  S
C222        N223   1.362       .  A
C222        N227   1.361       .  A
N223        C224   1.360       .  A
C224        C688   1.485       .  S
C224        N225   1.358       .  A
N225        C226   1.357       .  A
C226       C1203   1.483       .  S
C226        N227   1.360       .  A
O228        C244   1.275       .  A
O228       Zn234   2.014       .  S
C229        O245   1.276       .  A
C229        O242   1.276       .  A
C229        C496   1.487       .  S
O230        C243   1.274       .  A
O230       Cd237   2.065       .  S
O231        C249   1.274       .  A
O231       Cd240   2.064       .  S
O232        C246   1.276       .  A
O232       Cd236   2.084       .  S
O233        C244   1.276       .  A
O233       Cd236   2.079       .  S
Zn234       O245   2.034       .  S
Zn234       O247   2.017       .  S
Zn234       O239   1.942       .  S
O235        C246   1.274       .  A
O235       Cd240   2.059       .  S
Cd236       O238   2.080       .  S
Cd236       O239   2.009       .  S
Cd237       O241   2.069       .  S
Cd237       O250   2.072       .  S
Cd237       O239   2.005       .  S
O238        C248   1.277       .  A
O239       Cd240   1.993       .  S
Cd240       O242   2.075       .  S
O241        C248   1.275       .  A
C243        O247   1.275       .  A
C243        C579   1.481       .  S
C244        C603   1.484       .  S
C246        C544   1.473       .  S
C248        C616   1.484       .  S
C249        O250   1.275       .  A
C249        C531   1.476       .  S
C251       C1419   1.488       .  S
C251        N252   1.362       .  A
C251        N256   1.360       .  A
N252        C253   1.362       .  A
C253        C592   1.480       .  S
C253        N254   1.359       .  A
N254        C255   1.357       .  A
C255       C1672   1.485       .  S
C255        N256   1.358       .  A
C257        C568   1.481       .  S
C257        N258   1.356       .  A
C257        N262   1.361       .  A
N258        C259   1.354       .  A
C259        C880   1.479       .  S
C259        N260   1.356       .  A
N260        C261   1.360       .  A
C261        C843   1.480       .  S
C261        N262   1.363       .  A
C263        C747   1.485       .  S
C263        N264   1.362       .  A
C263        N268   1.360       .  A
N264        C265   1.361   1_556  A
C265        C555   1.480       .  S
C265        N266   1.357       .  A
N266        C267   1.356   1_554  A
C267       C1144   1.483       .  S
C267        N268   1.358       .  A
O269        C285   1.274       .  A
O269       Zn275   2.016       .  S
C270        O286   1.275       .  A
C270        O283   1.276       .  A
C270        C483   1.486       .  S
O271        C284   1.277       .  A
O271       Cd278   2.081       .  S
O272        C290   1.276       .  A
O272       Cd281   2.075       .  S
O273        C287   1.276       .  A
O273       Cd277   2.071       .  S
O274        C285   1.276       .  A
O274       Cd277   2.078       .  S
Zn275       O286   2.022       .  S
Zn275       O288   2.020       .  S
Zn275       O280   1.945       .  S
O276        C287   1.277       .  A
O276       Cd281   2.076       .  S
Cd277       O279   2.080       .  S
Cd277       O280   2.006       .  S
Cd278       O282   2.088       .  S
Cd278       O291   2.086       .  S
Cd278       O280   2.010       .  S
O279        C289   1.277       .  A
O280       Cd281   2.008       .  S
Cd281       O283   2.085       .  S
O282        C289   1.277       .  A
C284        O288   1.276       .  A
C284        C352   1.485       .  S
C285        C376   1.484       .  S
C287        C424   1.483       .  S
C289        C459   1.490       .  S
C290        O291   1.278       .  A
C290        C400   1.488       .  S
C292        C387   1.484       .  S
C292        N293   1.359       .  A
C292        N297   1.359       .  A
N293        C294   1.360       .  A
C294       C1107   1.484       .  S
C294        N295   1.360       .  A
N295        C296   1.359       .  A
C296       C1251   1.484       .  S
C296        N297   1.358       .  A
C298        C363   1.486       .  S
C298        N299   1.359       .  A
C298        N303   1.361       .  A
N299        C300   1.358       .  A
C300        C651   1.485       .  S
C300        N301   1.359       .  A
N301        C302   1.360       .  A
C302        C808   1.485       .  S
C302        N303   1.361       .  A
C304        C435   1.486       .  S
C304        N305   1.358       .  A
C304        N309   1.362       .  A
N305        C306   1.357   1_556  A
C306        C928   1.486       .  S
C306        N307   1.359       .  A
N307        C308   1.362   1_554  A
C308       C1587   1.489       .  S
C308        N309   1.363       .  A
C310        C411   1.488       .  S
C310        N311   1.363       .  A
C310        N315   1.361       .  A
N311        C312   1.361   1_556  A
C312        C520   1.472   1_565  S
C312        N313   1.356       .  A
N313        C314   1.355   1_554  A
C314       C1528   1.483       .  S
C314        N315   1.358       .  A
C316        C507   1.486       .  S
C316        N317   1.361   1_545  A
C316        N321   1.360       .  A
N317        C318   1.361   1_455  A
C318        C904   1.490       .  S
C318        N319   1.362       .  A
N319        C320   1.362   1_565  A
C320       C1851   1.489       .  S
C320        N321   1.360   1_655  A
C322        C795   1.487       .  S
C322        N323   1.357       .  A
C322        N327   1.360       .  A
N323        C324   1.357       .  A
C324       C1131   1.486       .  S
C324        N325   1.360       .  A
N325        C326   1.363       .  A
C326       C1491   1.487       .  S
C326        N327   1.362       .  A
C328       C1035   1.488       .  S
C328        N329   1.359       .  A
C328        N333   1.360       .  A
N329        C330   1.360       .  A
C330        C867   1.490       .  S
C330        N331   1.362       .  A
N331        C332   1.364       .  A
C332       C1504   1.491       .  S
C332        N333   1.362       .  A
C334       C1275   1.489       .  S
C334        N335   1.361   1_565  A
C334        N339   1.363       .  A
N335        C336   1.359   1_655  A
C336        C675   1.486       .  S
C336        N337   1.359       .  A
N337        C338   1.361   1_545  A
C338        C472   1.488       .  S
C338        N339   1.363   1_455  A
C340        C771   1.490       .  S
C340        N341   1.364       .  A
C340        N345   1.358       .  A
N341        C342   1.366       .  A
C342        C448   1.491       .  S
C342        N343   1.362       .  A
N343        C344   1.357       .  A
C344       C1371   1.487       .  S
C344        N345   1.356       .  A
C346       C1000   1.487       .  S
C346        N347   1.359       .  A
C346        N351   1.357       .  A
N347        C348   1.362       .  A
C348        C627   1.488       .  S
C348        N349   1.363       .  A
N349        C350   1.361       .  A
C350       C1827   1.488       .  S
C350        N351   1.358       .  A
C352        C353   1.406       .  A
C352        C357   1.407       .  A
C353        C354   1.397       .  A
C353        H366   1.083       .  S
C354        C355   1.403       .  A
C354        H367   1.083       .  S
C355        C356   1.408       .  A
C355        C358   1.487       .  S
C356        C357   1.401       .  A
C356        H368   1.082       .  S
C357        H369   1.083       .  S
C358        C359   1.348       .  D
C358        H370   1.086       .  S
C359        C360   1.488       .  S
C359        H371   1.086       .  S
C360        C361   1.404       .  A
C360        C365   1.407   1_565  A
C361        C362   1.400       .  A
C361        H372   1.083       .  S
C362        C363   1.406   1_565  A
C362        H373   1.083       .  S
C363        C364   1.407       .  A
C364        C365   1.398       .  A
C364        H374   1.083       .  S
C365        H375   1.082       .  S
C376        C377   1.407       .  A
C376        C381   1.407       .  A
C377        C378   1.397       .  A
C377        H390   1.083       .  S
C378        C379   1.402       .  A
C378        H391   1.083       .  S
C379        C380   1.407       .  A
C379        C382   1.485       .  S
C380        C381   1.400       .  A
C380        H392   1.083       .  S
C381        H393   1.082       .  S
C382        C383   1.346       .  D
C382        H394   1.085       .  S
C383        C384   1.485       .  S
C383        H395   1.085       .  S
C384        C385   1.403       .  A
C384        C389   1.406   1_455  A
C385        C386   1.399       .  A
C385        H396   1.083       .  S
C386        C387   1.407   1_455  A
C386        H397   1.083       .  S
C387        C388   1.407       .  A
C388        C389   1.398       .  A
C388        H398   1.083       .  S
C389        H399   1.082       .  S
C400        C401   1.407       .  A
C400        C405   1.406       .  A
C401        C402   1.400       .  A
C401        H414   1.082       .  S
C402        C403   1.404       .  A
C402        H415   1.084       .  S
C403        C404   1.410       .  A
C403        C406   1.493       .  S
C404        C405   1.400       .  A
C404        H416   1.080       .  S
C405        H417   1.084       .  S
C406        C407   1.349       .  D
C406        H418   1.084       .  S
C407        C408   1.495       .  S
C407        H419   1.085       .  S
C408        C409   1.404       .  A
C408        C413   1.411       .  A
C409        C410   1.396       .  A
C409        H420   1.084       .  S
C410        C411   1.406       .  A
C410        H421   1.083       .  S
C411        C412   1.407       .  A
C412        C413   1.403       .  A
C412        H422   1.083       .  S
C413        H423   1.079       .  S
C424        C425   1.406       .  A
C424        C429   1.405       .  A
C425        C426   1.398       .  A
C425        H438   1.084       .  S
C426        C427   1.404       .  A
C426        H439   1.082       .  S
C427        C428   1.409       .  A
C427        C430   1.491       .  S
C428        C429   1.398       .  A
C428        H440   1.082       .  S
C429        H441   1.082       .  S
C430        C431   1.348       .  D
C430        H442   1.083       .  S
C431        C432   1.490       .  S
C431        H443   1.083       .  S
C432        C433   1.403       .  A
C432        C437   1.410       .  A
C433        C434   1.396   1_455  A
C433        H444   1.083       .  S
C434        C435   1.407       .  A
C434        H445   1.083       .  S
C435        C436   1.406   1_655  A
C436        C437   1.402       .  A
C436        H446   1.082       .  S
C437        H447   1.081       .  S
C448        C449   1.407       .  A
C448        C453   1.407       .  A
C449        C450   1.398       .  A
C449        H462   1.083       .  S
C450        C451   1.403       .  A
C450        H463   1.083       .  S
C451        C452   1.411       .  A
C451        C454   1.495       .  S
C452        C453   1.404       .  A
C452        H464   1.080       .  S
C453        H465   1.083       .  S
C454        C455   1.350       .  D
C454        H466   1.084       .  S
C455        C456   1.494       .  S
C455        H467   1.083       .  S
C456        C457   1.404       .  A
C456        C461   1.410       .  A
C457        C458   1.399       .  A
C457        H468   1.083       .  S
C458        C459   1.407       .  A
C458        H469   1.083       .  S
C459        C460   1.407       .  A
C460        C461   1.403       .  A
C460        H470   1.083       .  S
C461        H471   1.081       .  S
C472        C473   1.407       .  A
C472        C477   1.407       .  A
C473        C474   1.399       .  A
C473        H486   1.083   1_565  S
C474        C475   1.403       .  A
C474        H487   1.084       .  S
C475        C476   1.408       .  A
C475        C478   1.490       .  S
C476        C477   1.403       .  A
C476        H488   1.082       .  S
C477        H489   1.083   1_455  S
C478        C479   1.348       .  D
C478        H490   1.086       .  S
C479        C480   1.490       .  S
C479        H491   1.086       .  S
C480        C481   1.403       .  A
C480        C485   1.409       .  A
C481        C482   1.399       .  A
C481        H492   1.084       .  S
C482        C483   1.406       .  A
C482        H493   1.083       .  S
C483        C484   1.407       .  A
C484        C485   1.403       .  A
C484        H494   1.083       .  S
C485        H495   1.082       .  S
C496        C497   1.406       .  A
C496        C501   1.407       .  A
C497        C498   1.399       .  A
C497        H510   1.083       .  S
C498        C499   1.404       .  A
C498        H511   1.083       .  S
C499        C500   1.408       .  A
C499        C502   1.490       .  S
C500        C501   1.402       .  A
C500        H512   1.082       .  S
C501        H513   1.083       .  S
C502        C503   1.349       .  D
C502        H514   1.086       .  S
C503        C504   1.491       .  S
C503        H515   1.085       .  S
C504        C505   1.404       .  A
C504        C509   1.408       .  A
C505        C506   1.401       .  A
C505        H516   1.083       .  S
C506        C507   1.406       .  A
C506        H517   1.083       .  S
C507        C508   1.406       .  A
C508        C509   1.400       .  A
C508        H518   1.083       .  S
C509        H519   1.082       .  S
C520        C521   1.404       .  A
C520        C525   1.404       .  A
C521        C522   1.394       .  A
C521        H534   1.084       .  S
C522        C523   1.399       .  A
C522        H535   1.083       .  S
C523        C524   1.405       .  A
C523        C526   1.474       .  S
C524        C525   1.401       .  A
C524        H536   1.084       .  S
C525        H537   1.082   1_545  S
C526        C527   1.342       .  D
C526        H538   1.086       .  S
C527        C528   1.479       .  S
C527        H539   1.087       .  S
C528        C529   1.402       .  A
C528        C533   1.405       .  A
C529        C530   1.399       .  A
C529        H540   1.083       .  S
C530        C531   1.405       .  A
C530        H541   1.083       .  S
C531        C532   1.405       .  A
C532        C533   1.396       .  A
C532        H542   1.083       .  S
C533        H543   1.083       .  S
C544        C545   1.404       .  A
C544        C549   1.404       .  A
C545        C546   1.395       .  A
C545        H558   1.083       .  S
C546        C547   1.400       .  A
C546        H559   1.084       .  S
C547        C548   1.406       .  A
C547        C550   1.476       .  S
C548        C549   1.401       .  A
C548        H560   1.082       .  S
C549        H561   1.084       .  S
C550        C551   1.343       .  D
C550        H562   1.088       .  S
C551        C552   1.479       .  S
C551        H563   1.088       .  S
C552        C553   1.403       .  A
C552        C557   1.403       .  A
C553        C554   1.401       .  A
C553        H564   1.084       .  S
C554        C555   1.406       .  A
C554        H565   1.082       .  S
C555        C556   1.406       .  A
C556        C557   1.395       .  A
C556        H566   1.084       .  S
C557        H567   1.082       .  S
C568        C569   1.406       .  A
C568        C573   1.406   1_565  A
C569        C570   1.391   1_565  A
C569        H582   1.083       .  S
C570        C571   1.400       .  A
C570        H583   1.083   1_545  S
C571        C572   1.409       .  A
C571        C574   1.482       .  S
C572        C573   1.402       .  A
C572        H584   1.082       .  S
C573        H585   1.083       .  S
C574        C575   1.345       .  D
C574        H586   1.085       .  S
C575        C576   1.485       .  S
C575        H587   1.085       .  S
C576        C577   1.403       .  A
C576        C581   1.407       .  A
C577        C578   1.400       .  A
C577        H588   1.083       .  S
C578        C579   1.407       .  A
C578        H589   1.083       .  S
C579        C580   1.404       .  A
C580        C581   1.394       .  A
C580        H590   1.083       .  S
C581        H591   1.082       .  S
C592        C593   1.406       .  A
C592        C597   1.405       .  A
C593        C594   1.397       .  A
C593        H606   1.083       .  S
C594        C595   1.401       .  A
C594        H607   1.084       .  S
C595        C596   1.407       .  A
C595        C598   1.483       .  S
C596        C597   1.401       .  A
C596        H608   1.082       .  S
C597        H609   1.083       .  S
C598        C599   1.345       .  D
C598        H610   1.087       .  S
C599        C600   1.483       .  S
C599        H611   1.087       .  S
C600        C601   1.401       .  A
C600        C605   1.407       .  A
C601        C602   1.396       .  A
C601        H612   1.084       .  S
C602        C603   1.407       .  A
C602        H613   1.083       .  S
C603        C604   1.407       .  A
C604        C605   1.401       .  A
C604        H614   1.083       .  S
C605        H615   1.082       .  S
C616        C617   1.407       .  A
C616        C621   1.405       .  A
C617        C618   1.399       .  A
C617        H630   1.084       .  S
C618        C619   1.404       .  A
C618        H631   1.082       .  S
C619        C620   1.408       .  A
C619        C622   1.490       .  S
C620        C621   1.398       .  A
C620        H632   1.082       .  S
C621        H633   1.082       .  S
C622        C623   1.349       .  D
C622        H634   1.082       .  S
C623        C624   1.491       .  S
C623        H635   1.083       .  S
C624        C625   1.404       .  A
C624        C629   1.409       .  A
C625        C626   1.397       .  A
C625        H636   1.082       .  S
C626        C627   1.406       .  A
C626        H637   1.084       .  S
C627        C628   1.407       .  A
C628        C629   1.402       .  A
C628        H638   1.082       .  S
C629        H639   1.081       .  S
C640        C641   1.406       .  A
C640        C645   1.406       .  A
C641        C642   1.398       .  A
C641        H654   1.083       .  S
C642        C643   1.404       .  A
C642        H655   1.083       .  S
C643        C644   1.408       .  A
C643        C646   1.489       .  S
C644        C645   1.399       .  A
C644        H656   1.081       .  S
C645        H657   1.083       .  S
C646        C647   1.349       .  D
C646        H658   1.084       .  S
C647        C648   1.489       .  S
C647        H659   1.084       .  S
C648        C649   1.403       .  A
C648        C653   1.409       .  A
C649        C650   1.397       .  A
C649        H660   1.083       .  S
C650        C651   1.406       .  A
C650        H661   1.083       .  S
C651        C652   1.406       .  A
C652        C653   1.400       .  A
C652        H662   1.083       .  S
C653        H663   1.081       .  S
C664        C665   1.407       .  A
C664        C669   1.406       .  A
C665        C666   1.400       .  A
C665        H678   1.083       .  S
C666        C667   1.404       .  A
C666        H679   1.083       .  S
C667        C668   1.409       .  A
C667        C670   1.491       .  S
C668        C669   1.402       .  A
C668        H680   1.082       .  S
C669        H681   1.083       .  S
C670        C671   1.349       .  D
C670        H682   1.085       .  S
C671        C672   1.492       .  S
C671        H683   1.086       .  S
C672        C673   1.405       .  A
C672        C677   1.409       .  A
C673        C674   1.400       .  A
C673        H684   1.083       .  S
C674        C675   1.405       .  A
C674        H685   1.083   1_455  S
C675        C676   1.407       .  A
C676        C677   1.402       .  A
C676        H686   1.083       .  S
C677        H687   1.081       .  S
C688        C689   1.406   1_655  A
C688        C693   1.407       .  A
C689        C690   1.400       .  A
C689        H702   1.083       .  S
C690        C691   1.404       .  A
C690        H703   1.083       .  S
C691        C692   1.406   1_455  A
C691        C694   1.486       .  S
C692        C693   1.397       .  A
C692        H704   1.082       .  S
C693        H705   1.083       .  S
C694        C695   1.347       .  D
C694        H706   1.086       .  S
C695        C696   1.485       .  S
C695        H707   1.086       .  S
C696        C697   1.403       .  A
C696        C701   1.407       .  A
C697        C698   1.398       .  A
C697        H708   1.083       .  S
C698        C699   1.406       .  A
C698        H709   1.083       .  S
C699        C700   1.407       .  A
C700        C701   1.400       .  A
C700        H710   1.082       .  S
C701        H711   1.083       .  S
C712        C713   1.407       .  A
C712        C717   1.406       .  A
C713        C714   1.398       .  A
C713        H726   1.083       .  S
C714        C715   1.402       .  A
C714        H727   1.084       .  S
C715        C716   1.408       .  A
C715        C718   1.486       .  S
C716        C717   1.402       .  A
C716        H728   1.082       .  S
C717        H729   1.083       .  S
C718        C719   1.346       .  D
C718        H730   1.087       .  S
C719        C720   1.487       .  S
C719        H731   1.087       .  S
C720        C721   1.402       .  A
C720        C725   1.408       .  A
C721        C722   1.399       .  A
C721        H732   1.084       .  S
C722        C723   1.407       .  A
C722        H733   1.083       .  S
C723        C724   1.406       .  A
C724        C725   1.402       .  A
C724        H734   1.083       .  S
C725        H735   1.082       .  S
C736        C737   1.405       .  A
C736        C741   1.406       .  A
C737        C738   1.398       .  A
C737        H750   1.083       .  S
C738        C739   1.406       .  A
C738        H751   1.083       .  S
C739        C740   1.409       .  A
C739        C742   1.492       .  S
C740        C741   1.399       .  A
C740        H752   1.080       .  S
C741        H753   1.083       .  S
C742        C743   1.350       .  D
C742        H754   1.085       .  S
C743        C744   1.490       .  S
C743        H755   1.083       .  S
C744        C745   1.405       .  A
C744        C749   1.407       .  A
C745        C746   1.400       .  A
C745        H756   1.084       .  S
C746        C747   1.406       .  A
C746        H757   1.083       .  S
C747        C748   1.406       .  A
C748        C749   1.397       .  A
C748        H758   1.083       .  S
C749        H759   1.081       .  S
C760        C761   1.407       .  A
C760        C765   1.407       .  A
C761        C762   1.400       .  A
C761        H774   1.084       .  S
C762        C763   1.404       .  A
C762        H775   1.082       .  S
C763        C764   1.410       .  A
C763        C766   1.495       .  S
C764        C765   1.403       .  A
C764        H776   1.082       .  S
C765        H777   1.082       .  S
C766        C767   1.349       .  D
C766        H778   1.082       .  S
C767        C768   1.495       .  S
C767        H779   1.083       .  S
C768        C769   1.403       .  A
C768        C773   1.412       .  A
C769        C770   1.396       .  A
C769        H780   1.083       .  S
C770        C771   1.407       .  A
C770        H781   1.084       .  S
C771        C772   1.407       .  A
C772        C773   1.406       .  A
C772        H782   1.082       .  S
C773        H783   1.081       .  S
C784        C785   1.406       .  A
C784        C789   1.406       .  A
C785        C786   1.399       .  A
C785        H798   1.084       .  S
C786        C787   1.404       .  A
C786        H799   1.082       .  S
C787        C788   1.410       .  A
C787        C790   1.492       .  S
C788        C789   1.401       .  A
C788        H800   1.082       .  S
C789        H801   1.082       .  S
C790        C791   1.349       .  D
C790        H802   1.081       .  S
C791        C792   1.494       .  S
C791        H803   1.083       .  S
C792        C793   1.404       .  A
C792        C797   1.411       .  A
C793        C794   1.396       .  A
C793        H804   1.083       .  S
C794        C795   1.406       .  A
C794        H805   1.083       .  S
C795        C796   1.406       .  A
C796        C797   1.402       .  A
C796        H806   1.082       .  S
C797        H807   1.080       .  S
C808        C809   1.406       .  A
C808        C813   1.407       .  A
C809        C810   1.400       .  A
C809        H822   1.084       .  S
C810        C811   1.404       .  A
C810        H823   1.082   1_545  S
C811        C812   1.407       .  A
C811        C814   1.488       .  S
C812        C813   1.399       .  A
C812        H824   1.082       .  S
C813        H825   1.082       .  S
C814        C815   1.349       .  D
C814        H826   1.083       .  S
C815        C816   1.491       .  S
C815        H827   1.085       .  S
C816        C817   1.404       .  A
C816        C821   1.409       .  A
C817        C818   1.398       .  A
C817        H828   1.083       .  S
C818        C819   1.406       .  A
C818        H829   1.084       .  S
C819        C820   1.407       .  A
C820        C821   1.400       .  A
C820        H830   1.082   1_545  S
C821        H831   1.081   1_545  S
C832        C833   1.406       .  A
C832        C837   1.405   1_545  A
C833        C834   1.399       .  A
C833        H846   1.083       .  S
C834        C835   1.403   1_545  A
C834        H847   1.084       .  S
C835        C836   1.406       .  A
C835        C838   1.482       .  S
C836        C837   1.396       .  A
C836        H848   1.082       .  S
C837        H849   1.083       .  S
C838        C839   1.346       .  D
C838        H850   1.087       .  S
C839        C840   1.482       .  S
C839        H851   1.087       .  S
C840        C841   1.404       .  A
C840        C845   1.405       .  A
C841        C842   1.400       .  A
C841        H852   1.084   1_565  S
C842        C843   1.405       .  A
C842        H853   1.082   1_565  S
C843        C844   1.406       .  A
C844        C845   1.395       .  A
C844        H854   1.083       .  S
C845        H855   1.082       .  S
C856        C857   1.407       .  A
C856        C861   1.408       .  A
C857        C858   1.400       .  A
C857        H870   1.083       .  S
C858        C859   1.404       .  A
C858        H871   1.083       .  S
C859        C860   1.408       .  A
C859        C862   1.492       .  S
C860        C861   1.403       .  A
C860        H872   1.082       .  S
C861        H873   1.083       .  S
C862        C863   1.349       .  D
C862        H874   1.086       .  S
C863        C864   1.491       .  S
C863        H875   1.086       .  S
C864        C865   1.403       .  A
C864        C869   1.408       .  A
C865        C866   1.399       .  A
C865        H876   1.083       .  S
C866        C867   1.407       .  A
C866        H877   1.083       .  S
C867        C868   1.407       .  A
C868        C869   1.404       .  A
C868        H878   1.083       .  S
C869        H879   1.082       .  S
C880        C881   1.405       .  A
C880        C885   1.406       .  A
C881        C882   1.398       .  A
C881        H894   1.083       .  S
C882        C883   1.403       .  A
C882        H895   1.083       .  S
C883        C884   1.407       .  A
C883        C886   1.483       .  S
C884        C885   1.394       .  A
C884        H896   1.081       .  S
C885        H897   1.083       .  S
C886        C887   1.347       .  D
C886        H898   1.085       .  S
C887        C888   1.481       .  S
C887        H899   1.084       .  S
C888        C889   1.402       .  A
C888        C893   1.406       .  A
C889        C890   1.396       .  A
C889        H900   1.083       .  S
C890        C891   1.406       .  A
C890        H901   1.083       .  S
C891        C892   1.406       .  A
C892        C893   1.397       .  A
C892        H902   1.083       .  S
C893        H903   1.082       .  S
C904        C905   1.407       .  A
C904        C909   1.408       .  A
C905        C906   1.400       .  A
C905        H918   1.083   1_655  S
C906        C907   1.404       .  A
C906        H919   1.083       .  S
C907        C908   1.408       .  A
C907        C910   1.492       .  S
C908        C909   1.403       .  A
C908        H920   1.082       .  S
C909        H921   1.083       .  S
C910        C911   1.349       .  D
C910        H922   1.086       .  S
C911        C912   1.492       .  S
C911        H923   1.086       .  S
C912        C913   1.404       .  A
C912        C917   1.408       .  A
C913        C914   1.401       .  A
C913        H924   1.084       .  S
C914        C915   1.408       .  A
C914        H925   1.083       .  S
C915        C916   1.407       .  A
C916        C917   1.403       .  A
C916        H926   1.083       .  S
C917        H927   1.082       .  S
C928        C929   1.406       .  A
C928        C933   1.407       .  A
C929        C930   1.397       .  A
C929        H942   1.084       .  S
C930        C931   1.404       .  A
C930        H943   1.082       .  S
C931        C932   1.409       .  A
C931        C934   1.491       .  S
C932        C933   1.401       .  A
C932        H944   1.081       .  S
C933        H945   1.082       .  S
C934        C935   1.350       .  D
C934        H946   1.080       .  S
C935        C936   1.495       .  S
C935        H947   1.082       .  S
C936        C937   1.406       .  A
C936        C941   1.410       .  A
C937        C938   1.400       .  A
C937        H948   1.082       .  S
C938        C939   1.405       .  A
C938        H949   1.084       .  S
C939        C940   1.405       .  A
C940        C941   1.398       .  A
C940        H950   1.082       .  S
C941        H951   1.080       .  S
C952        C953   1.406       .  A
C952        C957   1.405       .  A
C953        C954   1.398       .  A
C953        H966   1.083       .  S
C954        C955   1.402       .  A
C954        H967   1.084       .  S
C955        C956   1.408       .  A
C955        C958   1.486       .  S
C956        C957   1.400       .  A
C956        H968   1.081       .  S
C957        H969   1.083       .  S
C958        C959   1.345       .  D
C958        H970   1.087       .  S
C959        C960   1.483       .  S
C959        H971   1.086       .  S
C960        C961   1.400       .  A
C960        C965   1.409       .  A
C961        C962   1.394       .  A
C961        H972   1.084       .  S
C962        C963   1.406       .  A
C962        H973   1.083       .  S
C963        C964   1.405       .  A
C964        C965   1.402       .  A
C964        H974   1.083       .  S
C965        H975   1.082       .  S
C976        C977   1.406       .  A
C976        C981   1.406       .  A
C977        C978   1.399       .  A
C977        H990   1.083       .  S
C978        C979   1.403       .  A
C978        H991   1.083       .  S
C979        C980   1.407       .  A
C979        C982   1.486       .  S
C980        C981   1.397       .  A
C980        H992   1.082       .  S
C981        H993   1.083       .  S
C982        C983   1.346       .  D
C982        H994   1.085       .  S
C983        C984   1.484       .  S
C983        H995   1.085       .  S
C984        C985   1.401       .  A
C984        C989   1.408       .  A
C985        C986   1.394   1_655  A
C985        H996   1.083       .  S
C986        C987   1.406       .  A
C986        H997   1.084       .  S
C987        C988   1.406   1_455  A
C988        C989   1.401       .  A
C988        H998   1.082       .  S
C989        H999   1.082       .  S
C1000      C1001   1.406       .  A
C1000      C1005   1.407       .  A
C1001      C1002   1.397       .  A
C1001      H1014   1.083       .  S
C1002      C1003   1.403       .  A
C1002      H1015   1.084       .  S
C1003      C1004   1.410       .  A
C1003      C1006   1.492       .  S
C1004      C1005   1.402       .  A
C1004      H1016   1.080       .  S
C1005      H1017   1.083       .  S
C1006      C1007   1.349       .  D
C1006      H1018   1.085       .  S
C1007      C1008   1.491       .  S
C1007      H1019   1.084       .  S
C1008      C1009   1.404       .  A
C1008      C1013   1.409       .  A
C1009      C1010   1.400       .  A
C1009      H1020   1.084       .  S
C1010      C1011   1.406       .  A
C1010      H1021   1.083       .  S
C1011      C1012   1.407       .  A
C1012      C1013   1.400       .  A
C1012      H1022   1.083       .  S
C1013      H1023   1.081       .  S
C1024      C1025   1.406       .  A
C1024      C1029   1.406       .  A
C1025      C1026   1.400       .  A
C1025      H1038   1.083       .  S
C1026      C1027   1.404       .  A
C1026      H1039   1.083       .  S
C1027      C1028   1.408       .  A
C1027      C1030   1.491       .  S
C1028      C1029   1.401       .  A
C1028      H1040   1.082       .  S
C1029      H1041   1.083       .  S
C1030      C1031   1.349       .  D
C1030      H1042   1.085       .  S
C1031      C1032   1.491       .  S
C1031      H1043   1.085       .  S
C1032      C1033   1.404       .  A
C1032      C1037   1.409       .  A
C1033      C1034   1.399       .  A
C1033      H1044   1.083       .  S
C1034      C1035   1.407       .  A
C1034      H1045   1.083       .  S
C1035      C1036   1.407       .  A
C1036      C1037   1.402       .  A
C1036      H1046   1.083       .  S
C1037      H1047   1.081       .  S
C1048      C1049   1.407   1_455  A
C1048      C1053   1.405       .  A
C1049      C1050   1.399       .  A
C1049      H1062   1.082       .  S
C1050      C1051   1.403   1_655  A
C1050      H1063   1.085       .  S
C1051      C1052   1.408       .  A
C1051      C1054   1.488       .  S
C1052      C1053   1.397       .  A
C1052      H1064   1.080       .  S
C1053      H1065   1.084       .  S
C1054      C1055   1.347       .  D
C1054      H1066   1.086   1_455  S
C1055      C1056   1.485       .  S
C1055      H1067   1.086       .  S
C1056      C1057   1.401       .  A
C1056      C1061   1.409       .  A
C1057      C1058   1.394       .  A
C1057      H1068   1.084       .  S
C1058      C1059   1.406       .  A
C1058      H1069   1.083       .  S
C1059      C1060   1.406       .  A
C1060      C1061   1.402       .  A
C1060      H1070   1.083       .  S
C1061      H1071   1.082   1_455  S
C1072      C1073   1.406       .  A
C1072      C1077   1.407   1_655  A
C1073      C1074   1.400       .  A
C1073      H1086   1.083       .  S
C1074      C1075   1.405       .  A
C1074      H1087   1.083       .  S
C1075      C1076   1.408   1_655  A
C1075      C1078   1.491       .  S
C1076      C1077   1.399       .  A
C1076      H1088   1.081       .  S
C1077      H1089   1.082       .  S
C1078      C1079   1.350       .  D
C1078      H1090   1.084       .  S
C1079      C1080   1.490       .  S
C1079      H1091   1.083       .  S
C1080      C1081   1.404       .  A
C1080      C1085   1.408       .  A
C1081      C1082   1.399       .  A
C1081      H1092   1.082   1_655  S
C1082      C1083   1.406       .  A
C1082      H1093   1.084       .  S
C1083      C1084   1.407       .  A
C1084      C1085   1.400       .  A
C1084      H1094   1.082       .  S
C1085      H1095   1.082       .  S
C1096      C1097   1.406       .  A
C1096      C1101   1.405   1_455  A
C1097      C1098   1.399       .  A
C1097      H1110   1.082       .  S
C1098      C1099   1.404       .  A
C1098      H1111   1.084       .  S
C1099      C1100   1.408   1_455  A
C1099      C1102   1.489   1_455  S
C1100      C1101   1.397       .  A
C1100      H1112   1.080       .  S
C1101      H1113   1.084       .  S
C1102      C1103   1.349       .  D
C1102      H1114   1.084   1_655  S
C1103      C1104   1.488       .  S
C1103      H1115   1.084       .  S
C1104      C1105   1.404       .  A
C1104      C1109   1.408       .  A
C1105      C1106   1.397       .  A
C1105      H1116   1.083       .  S
C1106      C1107   1.406       .  A
C1106      H1117   1.083       .  S
C1107      C1108   1.407       .  A
C1108      C1109   1.399       .  A
C1108      H1118   1.083       .  S
C1109      H1119   1.081   1_655  S
C1120      C1121   1.408       .  A
C1120      C1125   1.405       .  A
C1121      C1122   1.399       .  A
C1121      H1134   1.083       .  S
C1122      C1123   1.403       .  A
C1122      H1135   1.083       .  S
C1123      C1124   1.409       .  A
C1123      C1126   1.490       .  S
C1124      C1125   1.399       .  A
C1124      H1136   1.082       .  S
C1125      H1137   1.082       .  S
C1126      C1127   1.349       .  D
C1126      H1138   1.082       .  S
C1127      C1128   1.492       .  S
C1127      H1139   1.084       .  S
C1128      C1129   1.403       .  A
C1128      C1133   1.411       .  A
C1129      C1130   1.395       .  A
C1129      H1140   1.082       .  S
C1130      C1131   1.406       .  A
C1130      H1141   1.084       .  S
C1131      C1132   1.407       .  A
C1132      C1133   1.403       .  A
C1132      H1142   1.082       .  S
C1133      H1143   1.080       .  S
C1144      C1145   1.405       .  A
C1144      C1149   1.407   1_556  A
C1145      C1146   1.398       .  A
C1145      H1158   1.083       .  S
C1146      C1147   1.404       .  A
C1146      H1159   1.083       .  S
C1147      C1148   1.407   1_556  A
C1147      C1150   1.486       .  S
C1148      C1149   1.397       .  A
C1148      H1160   1.081       .  S
C1149      H1161   1.083       .  S
C1150      C1151   1.349       .  D
C1150      H1162   1.083       .  S
C1151      C1152   1.488       .  S
C1151      H1163   1.084   1_556  S
C1152      C1153   1.404   1_556  A
C1152      C1157   1.408       .  A
C1153      C1154   1.398       .  A
C1153      H1164   1.083       .  S
C1154      C1155   1.406   1_554  A
C1154      H1165   1.083       .  S
C1155      C1156   1.406       .  A
C1156      C1157   1.398       .  A
C1156      H1166   1.082       .  S
C1157      H1167   1.081       .  S
C1168      C1169   1.406       .  A
C1168      C1173   1.407       .  A
C1169      C1170   1.396       .  A
C1169      H1182   1.082       .  S
C1170      C1171   1.403       .  A
C1170      H1183   1.084       .  S
C1171      C1172   1.410       .  A
C1171      C1174   1.491       .  S
C1172      C1173   1.402       .  A
C1172      H1184   1.080       .  S
C1173      H1185   1.083       .  S
C1174      C1175   1.348       .  D
C1174      H1186   1.086       .  S
C1175      C1176   1.489       .  S
C1175      H1187   1.085       .  S
C1176      C1177   1.403       .  A
C1176      C1181   1.409       .  A
C1177      C1178   1.399       .  A
C1177      H1188   1.084       .  S
C1178      C1179   1.407       .  A
C1178      H1189   1.082       .  S
C1179      C1180   1.406       .  A
C1180      C1181   1.399       .  A
C1180      H1190   1.084       .  S
C1181      H1191   1.080       .  S
C1192      C1193   1.406       .  A
C1192      C1197   1.406       .  A
C1193      C1194   1.399       .  A
C1193      H1206   1.083       .  S
C1194      C1195   1.404       .  A
C1194      H1207   1.083       .  S
C1195      C1196   1.408       .  A
C1195      C1198   1.488       .  S
C1196      C1197   1.397       .  A
C1196      H1208   1.081       .  S
C1197      H1209   1.083       .  S
C1198      C1199   1.349       .  D
C1198      H1210   1.085       .  S
C1199      C1200   1.487       .  S
C1199      H1211   1.084       .  S
C1200      C1201   1.404       .  A
C1200      C1205   1.407       .  A
C1201      C1202   1.399       .  A
C1201      H1212   1.083       .  S
C1202      C1203   1.405       .  A
C1202      H1213   1.083       .  S
C1203      C1204   1.407       .  A
C1204      C1205   1.397       .  A
C1204      H1214   1.083       .  S
C1205      H1215   1.081       .  S
C1216      C1217   1.405       .  A
C1216      C1221   1.407       .  A
C1217      C1218   1.399       .  A
C1217      H1230   1.083   1_545  S
C1218      C1219   1.405       .  A
C1218      H1231   1.083   1_545  S
C1219      C1220   1.407       .  A
C1219      C1222   1.489       .  S
C1220      C1221   1.397       .  A
C1220      H1232   1.081       .  S
C1221      H1233   1.083       .  S
C1222      C1223   1.350       .  D
C1222      H1234   1.082       .  S
C1223      C1224   1.492       .  S
C1223      H1235   1.084       .  S
C1224      C1225   1.406       .  A
C1224      C1229   1.409       .  A
C1225      C1226   1.399       .  A
C1225      H1236   1.083       .  S
C1226      C1227   1.404       .  A
C1226      H1237   1.084       .  S
C1227      C1228   1.406       .  A
C1228      C1229   1.397       .  A
C1228      H1238   1.082   1_545  S
C1229      H1239   1.080   1_545  S
C1240      C1241   1.406       .  A
C1240      C1245   1.406       .  A
C1241      C1242   1.398       .  A
C1241      H1254   1.083       .  S
C1242      C1243   1.404       .  A
C1242      H1255   1.084       .  S
C1243      C1244   1.408       .  A
C1243      C1246   1.488       .  S
C1244      C1245   1.397       .  A
C1244      H1256   1.080       .  S
C1245      H1257   1.083       .  S
C1246      C1247   1.349       .  D
C1246      H1258   1.083       .  S
C1247      C1248   1.490       .  S
C1247      H1259   1.084       .  S
C1248      C1249   1.405       .  A
C1248      C1253   1.409       .  A
C1249      C1250   1.398       .  A
C1249      H1260   1.084       .  S
C1250      C1251   1.405       .  A
C1250      H1261   1.083       .  S
C1251      C1252   1.406       .  A
C1252      C1253   1.398       .  A
C1252      H1262   1.083       .  S
C1253      H1263   1.080       .  S
C1264      C1265   1.406       .  A
C1264      C1269   1.407       .  A
C1265      C1266   1.401       .  A
C1265      H1278   1.083       .  S
C1266      C1267   1.405       .  A
C1266      H1279   1.083       .  S
C1267      C1268   1.408       .  A
C1267      C1270   1.493       .  S
C1268      C1269   1.401       .  A
C1268      H1280   1.082       .  S
C1269      H1281   1.083       .  S
C1270      C1271   1.349       .  D
C1270      H1282   1.085       .  S
C1271      C1272   1.492       .  S
C1271      H1283   1.085       .  S
C1272      C1273   1.403       .  A
C1272      C1277   1.409       .  A
C1273      C1274   1.398       .  A
C1273      H1284   1.083       .  S
C1274      C1275   1.406       .  A
C1274      H1285   1.083   1_565  S
C1275      C1276   1.407       .  A
C1276      C1277   1.404       .  A
C1276      H1286   1.083       .  S
C1277      H1287   1.082       .  S
C1288      C1289   1.406       .  A
C1288      C1293   1.407       .  A
C1289      C1290   1.395       .  A
C1289      H1302   1.083       .  S
C1290      C1291   1.402       .  A
C1290      H1303   1.084       .  S
C1291      C1292   1.409       .  A
C1291      C1294   1.486       .  S
C1292      C1293   1.402       .  A
C1292      H1304   1.081       .  S
C1293      H1305   1.083       .  S
C1294      C1295   1.347       .  D
C1294      H1306   1.086       .  S
C1295      C1296   1.487       .  S
C1295      H1307   1.086       .  S
C1296      C1297   1.403       .  A
C1296      C1301   1.408       .  A
C1297      C1298   1.399       .  A
C1297      H1308   1.084       .  S
C1298      C1299   1.407       .  A
C1298      H1309   1.083       .  S
C1299      C1300   1.405       .  A
C1300      C1301   1.397       .  A
C1300      H1310   1.083       .  S
C1301      H1311   1.082       .  S
C1312      C1313   1.406       .  A
C1312      C1317   1.406       .  A
C1313      C1314   1.399       .  A
C1313      H1326   1.083       .  S
C1314      C1315   1.403       .  A
C1314      H1327   1.084       .  S
C1315      C1316   1.407       .  A
C1315      C1318   1.485       .  S
C1316      C1317   1.399       .  A
C1316      H1328   1.082       .  S
C1317      H1329   1.083       .  S
C1318      C1319   1.346       .  D
C1318      H1330   1.087       .  S
C1319      C1320   1.485       .  S
C1319      H1331   1.087       .  S
C1320      C1321   1.403       .  A
C1320      C1325   1.407       .  A
C1321      C1322   1.399       .  A
C1321      H1332   1.084       .  S
C1322      C1323   1.406   1_565  A
C1322      H1333   1.082       .  S
C1323      C1324   1.406       .  A
C1324      C1325   1.399   1_545  A
C1324      H1334   1.083       .  S
C1325      H1335   1.082   1_565  S
C1336      C1337   1.404       .  A
C1336      C1341   1.407       .  A
C1337      C1338   1.398       .  A
C1337      H1350   1.083       .  S
C1338      C1339   1.406       .  A
C1338      H1351   1.083       .  S
C1339      C1340   1.409       .  A
C1339      C1342   1.492       .  S
C1340      C1341   1.400       .  A
C1340      H1352   1.080       .  S
C1341      H1353   1.083       .  S
C1342      C1343   1.350       .  D
C1342      H1354   1.084       .  S
C1343      C1344   1.490       .  S
C1343      H1355   1.082       .  S
C1344      C1345   1.405       .  A
C1344      C1349   1.408       .  A
C1345      C1346   1.400       .  A
C1345      H1356   1.083       .  S
C1346      C1347   1.406       .  A
C1346      H1357   1.083       .  S
C1347      C1348   1.406       .  A
C1348      C1349   1.398       .  A
C1348      H1358   1.083       .  S
C1349      H1359   1.081       .  S
C1360      C1361   1.407       .  A
C1360      C1365   1.406       .  A
C1361      C1362   1.400       .  A
C1361      H1374   1.084       .  S
C1362      C1363   1.404       .  A
C1362      H1375   1.082       .  S
C1363      C1364   1.409       .  A
C1363      C1366   1.492       .  S
C1364      C1365   1.400       .  A
C1364      H1376   1.082       .  S
C1365      H1377   1.082       .  S
C1366      C1367   1.350       .  D
C1366      H1378   1.082       .  S
C1367      C1368   1.493       .  S
C1367      H1379   1.083       .  S
C1368      C1369   1.404       .  A
C1368      C1373   1.410       .  A
C1369      C1370   1.396       .  A
C1369      H1380   1.082       .  S
C1370      C1371   1.405       .  A
C1370      H1381   1.084       .  S
C1371      C1372   1.407       .  A
C1372      C1373   1.402       .  A
C1372      H1382   1.082       .  S
C1373      H1383   1.080       .  S
C1384      C1385   1.407       .  A
C1384      C1389   1.406       .  A
C1385      C1386   1.401       .  A
C1385      H1398   1.083       .  S
C1386      C1387   1.403       .  A
C1386      H1399   1.083       .  S
C1387      C1388   1.405       .  A
C1387      C1390   1.483       .  S
C1388      C1389   1.398       .  A
C1388      H1400   1.083       .  S
C1389      H1401   1.083       .  S
C1390      C1391   1.344       .  D
C1390      H1402   1.086       .  S
C1391      C1392   1.478       .  S
C1391      H1403   1.086       .  S
C1392      C1393   1.400       .  A
C1392      C1397   1.405       .  A
C1393      C1394   1.396       .  A
C1393      H1404   1.083       .  S
C1394      C1395   1.405       .  A
C1394      H1405   1.084       .  S
C1395      C1396   1.407       .  A
C1396      C1397   1.403       .  A
C1396      H1406   1.082       .  S
C1397      H1407   1.084       .  S
C1408      C1409   1.406       .  A
C1408      C1413   1.408       .  A
C1409      C1410   1.395       .  A
C1409      H1422   1.084       .  S
C1410      C1411   1.402       .  A
C1410      H1423   1.082       .  S
C1411      C1412   1.408       .  A
C1411      C1414   1.486       .  S
C1412      C1413   1.405       .  A
C1412      H1424   1.083       .  S
C1413      H1425   1.082       .  S
C1414      C1415   1.348       .  D
C1414      H1426   1.085       .  S
C1415      C1416   1.489       .  S
C1415      H1427   1.085       .  S
C1416      C1417   1.404       .  A
C1416      C1421   1.406       .  A
C1417      C1418   1.403       .  A
C1417      H1428   1.082       .  S
C1418      C1419   1.407       .  A
C1418      H1429   1.083       .  S
C1419      C1420   1.407       .  A
C1420      C1421   1.396       .  A
C1420      H1430   1.082       .  S
C1421      H1431   1.083       .  S
C1432      C1433   1.406       .  A
C1432      C1437   1.405       .  A
C1433      C1434   1.399       .  A
C1433      H1446   1.084       .  S
C1434      C1435   1.405       .  A
C1434      H1447   1.083       .  S
C1435      C1436   1.410       .  A
C1435      C1438   1.492       .  S
C1436      C1437   1.398       .  A
C1436      H1448   1.080       .  S
C1437      H1449   1.082       .  S
C1438      C1439   1.349       .  D
C1438      H1450   1.084       .  S
C1439      C1440   1.486       .  S
C1439      H1451   1.082       .  S
C1440      C1441   1.403       .  A
C1440      C1445   1.407       .  A
C1441      C1442   1.397       .  A
C1441      H1452   1.083       .  S
C1442      C1443   1.405       .  A
C1442      H1453   1.083       .  S
C1443      C1444   1.407       .  A
C1444      C1445   1.399       .  A
C1444      H1454   1.082       .  S
C1445      H1455   1.082       .  S
C1456      C1457   1.406       .  A
C1456      C1461   1.407       .  A
C1457      C1458   1.400       .  A
C1457      H1470   1.083       .  S
C1458      C1459   1.403       .  A
C1458      H1471   1.083       .  S
C1459      C1460   1.406       .  A
C1459      C1462   1.486       .  S
C1460      C1461   1.397       .  A
C1460      H1472   1.082       .  S
C1461      H1473   1.083       .  S
C1462      C1463   1.347       .  D
C1462      H1474   1.085       .  S
C1463      C1464   1.485       .  S
C1463      H1475   1.086       .  S
C1464      C1465   1.402       .  A
C1464      C1469   1.408       .  A
C1465      C1466   1.395       .  A
C1465      H1476   1.083       .  S
C1466      C1467   1.406       .  A
C1466      H1477   1.083       .  S
C1467      C1468   1.407       .  A
C1468      C1469   1.402       .  A
C1468      H1478   1.082       .  S
C1469      H1479   1.082       .  S
C1480      C1481   1.406       .  A
C1480      C1485   1.407       .  A
C1481      C1482   1.399       .  A
C1481      H1494   1.083       .  S
C1482      C1483   1.404       .  A
C1482      H1495   1.083       .  S
C1483      C1484   1.409       .  A
C1483      C1486   1.491       .  S
C1484      C1485   1.400       .  A
C1484      H1496   1.081       .  S
C1485      H1497   1.083       .  S
C1486      C1487   1.350       .  D
C1486      H1498   1.084       .  S
C1487      C1488   1.492       .  S
C1487      H1499   1.084       .  S
C1488      C1489   1.404       .  A
C1488      C1493   1.409       .  A
C1489      C1490   1.399       .  A
C1489      H1500   1.083       .  S
C1490      C1491   1.406       .  A
C1490      H1501   1.083       .  S
C1491      C1492   1.407       .  A
C1492      C1493   1.400       .  A
C1492      H1502   1.083       .  S
C1493      H1503   1.081       .  S
C1504      C1505   1.407       .  A
C1504      C1509   1.408       .  A
C1505      C1506   1.402       .  A
C1505      H1518   1.083       .  S
C1506      C1507   1.405       .  A
C1506      H1519   1.083       .  S
C1507      C1508   1.408       .  A
C1507      C1510   1.493       .  S
C1508      C1509   1.401       .  A
C1508      H1520   1.082       .  S
C1509      H1521   1.083       .  S
C1510      C1511   1.350       .  D
C1510      H1522   1.085       .  S
C1511      C1512   1.492       .  S
C1511      H1523   1.085       .  S
C1512      C1513   1.404       .  A
C1512      C1517   1.409       .  A
C1513      C1514   1.398       .  A
C1513      H1524   1.083       .  S
C1514      C1515   1.406       .  A
C1514      H1525   1.083       .  S
C1515      C1516   1.407       .  A
C1516      C1517   1.404       .  A
C1516      H1526   1.083       .  S
C1517      H1527   1.082       .  S
C1528      C1529   1.405       .  A
C1528      C1533   1.407   1_556  A
C1529      C1530   1.397       .  A
C1529      H1542   1.083       .  S
C1530      C1531   1.404   1_556  A
C1530      H1543   1.083       .  S
C1531      C1532   1.407       .  A
C1531      C1534   1.486   1_554  S
C1532      C1533   1.398       .  A
C1532      H1544   1.081   1_565  S
C1533      H1545   1.083   1_565  S
C1534      C1535   1.348   1_556  D
C1534      H1546   1.084       .  S
C1535      C1536   1.487       .  S
C1535      H1547   1.084       .  S
C1536      C1537   1.404   1_565  A
C1536      C1541   1.408       .  A
C1537      C1538   1.399       .  A
C1537      H1548   1.084       .  S
C1538      C1539   1.406   1_545  A
C1538      H1549   1.083       .  S
C1539      C1540   1.406       .  A
C1540      C1541   1.396       .  A
C1540      H1550   1.083   1_554  S
C1541      H1551   1.081   1_554  S
C1552      C1553   1.405       .  A
C1552      C1557   1.405       .  A
C1553      C1554   1.399       .  A
C1553      H1566   1.083       .  S
C1554      C1555   1.402       .  A
C1554      H1567   1.084       .  S
C1555      C1556   1.405       .  A
C1555      C1558   1.480       .  S
C1556      C1557   1.398       .  A
C1556      H1568   1.082       .  S
C1557      H1569   1.084       .  S
C1558      C1559   1.344       .  D
C1558      H1570   1.087       .  S
C1559      C1560   1.480       .  S
C1559      H1571   1.087       .  S
C1560      C1561   1.402       .  A
C1560      C1565   1.405       .  A
C1561      C1562   1.398       .  A
C1561      H1572   1.083       .  S
C1562      C1563   1.405       .  A
C1562      H1573   1.083       .  S
C1563      C1564   1.405       .  A
C1564      C1565   1.399       .  A
C1564      H1574   1.083       .  S
C1565      H1575   1.083       .  S
C1576      C1577   1.407       .  A
C1576      C1581   1.407   1_556  A
C1577      C1578   1.399       .  A
C1577      H1590   1.082   1_655  S
C1578      C1579   1.404       .  A
C1578      H1591   1.084   1_655  S
C1579      C1580   1.410   1_556  A
C1579      C1582   1.495       .  S
C1580      C1581   1.402       .  A
C1580      H1592   1.080       .  S
C1581      H1593   1.083       .  S
C1582      C1583   1.350       .  D
C1582      H1594   1.083       .  S
C1583      C1584   1.496       .  S
C1583      H1595   1.084   1_556  S
C1584      C1585   1.404   1_556  A
C1584      C1589   1.411       .  A
C1585      C1586   1.398       .  A
C1585      H1596   1.084       .  S
C1586      C1587   1.406   1_554  A
C1586      H1597   1.082       .  S
C1587      C1588   1.407       .  A
C1588      C1589   1.403       .  A
C1588      H1598   1.083       .  S
C1589      H1599   1.079       .  S
C1600      C1601   1.407       .  A
C1600      C1605   1.407       .  A
C1601      C1602   1.403       .  A
C1601      H1614   1.084       .  S
C1602      C1603   1.406       .  A
C1602      H1615   1.082       .  S
C1603      C1604   1.407       .  A
C1603      C1606   1.494       .  S
C1604      C1605   1.398       .  A
C1604      H1616   1.083       .  S
C1605      H1617   1.082       .  S
C1606      C1607   1.352       .  D
C1606      H1618   1.081       .  S
C1607      C1608   1.495       .  S
C1607      H1619   1.083       .  S
C1608      C1609   1.405       .  A
C1608      C1613   1.410       .  A
C1609      C1610   1.398       .  A
C1609      H1620   1.082       .  S
C1610      C1611   1.405       .  A
C1610      H1621   1.084       .  S
C1611      C1612   1.408       .  A
C1612      C1613   1.404       .  A
C1612      H1622   1.081       .  S
C1613      H1623   1.081       .  S
C1624      C1625   1.406       .  A
C1624      C1629   1.404       .  A
C1625      C1626   1.395       .  A
C1625      H1638   1.083       .  S
C1626      C1627   1.402       .  A
C1626      H1639   1.084       .  S
C1627      C1628   1.410       .  A
C1627      C1630   1.486       .  S
C1628      C1629   1.398       .  A
C1628      H1640   1.080       .  S
C1629      H1641   1.083       .  S
C1630      C1631   1.346       .  D
C1630      H1642   1.084       .  S
C1631      C1632   1.487       .  S
C1631      H1643   1.084       .  S
C1632      C1633   1.402       .  A
C1632      C1637   1.411       .  A
C1633      C1634   1.393       .  A
C1633      H1644   1.084       .  S
C1634      C1635   1.406       .  A
C1634      H1645   1.083       .  S
C1635      C1636   1.405       .  A
C1636      C1637   1.399       .  A
C1636      H1646   1.083       .  S
C1637      H1647   1.080       .  S
C1648      C1649   1.407       .  A
C1648      C1653   1.406   1_545  A
C1649      C1650   1.401       .  A
C1649      H1662   1.083       .  S
C1650      C1651   1.403       .  A
C1650      H1663   1.084       .  S
C1651      C1652   1.407   1_545  A
C1651      C1654   1.488       .  S
C1652      C1653   1.397       .  A
C1652      H1664   1.082       .  S
C1653      H1665   1.083       .  S
C1654      C1655   1.346   1_545  D
C1654      H1666   1.085       .  S
C1655      C1656   1.485       .  S
C1655      H1667   1.086       .  S
C1656      C1657   1.401       .  A
C1656      C1661   1.409   1_565  A
C1657      C1658   1.392       .  A
C1657      H1668   1.083       .  S
C1658      C1659   1.406       .  A
C1658      H1669   1.083       .  S
C1659      C1660   1.407       .  A
C1660      C1661   1.403   1_565  A
C1660      H1670   1.083   1_565  S
C1661      H1671   1.082       .  S
C1672      C1673   1.406       .  A
C1672      C1677   1.406       .  A
C1673      C1674   1.399       .  A
C1673      H1686   1.083       .  S
C1674      C1675   1.404       .  A
C1674      H1687   1.084       .  S
C1675      C1676   1.408       .  A
C1675      C1678   1.489       .  S
C1676      C1677   1.398       .  A
C1676      H1688   1.081       .  S
C1677      H1689   1.083       .  S
C1678      C1679   1.349       .  D
C1678      H1690   1.084       .  S
C1679      C1680   1.489       .  S
C1679      H1691   1.085       .  S
C1680      C1681   1.403       .  A
C1680      C1685   1.409       .  A
C1681      C1682   1.397       .  A
C1681      H1692   1.084       .  S
C1682      C1683   1.406       .  A
C1682      H1693   1.083       .  S
C1683      C1684   1.407       .  A
C1684      C1685   1.400       .  A
C1684      H1694   1.083       .  S
C1685      H1695   1.080       .  S
C1696      C1697   1.406       .  A
C1696      C1701   1.407       .  A
C1697      C1698   1.395       .  A
C1697      H1710   1.083       .  S
C1698      C1699   1.403       .  A
C1698      H1711   1.084       .  S
C1699      C1700   1.410       .  A
C1699      C1702   1.490       .  S
C1700      C1701   1.404       .  A
C1700      H1712   1.081       .  S
C1701      H1713   1.083       .  S
C1702      C1703   1.349       .  D
C1702      H1714   1.085       .  S
C1703      C1704   1.492       .  S
C1703      H1715   1.085       .  S
C1704      C1705   1.405   1_455  A
C1704      C1709   1.408       .  A
C1705      C1706   1.402       .  A
C1705      H1716   1.083       .  S
C1706      C1707   1.406   1_655  A
C1706      H1717   1.083       .  S
C1707      C1708   1.407       .  A
C1708      C1709   1.397       .  A
C1708      H1718   1.083       .  S
C1709      H1719   1.081       .  S
C1720      C1721   1.405       .  A
C1720      C1725   1.407       .  A
C1721      C1722   1.397       .  A
C1721      H1734   1.084       .  S
C1722      C1723   1.403       .  A
C1722      H1735   1.082       .  S
C1723      C1724   1.407       .  A
C1723      C1726   1.485       .  S
C1724      C1725   1.399       .  A
C1724      H1736   1.083       .  S
C1725      H1737   1.082       .  S
C1726      C1727   1.348       .  D
C1726      H1738   1.082       .  S
C1727      C1728   1.488       .  S
C1727      H1739   1.084       .  S
C1728      C1729   1.403       .  A
C1728      C1733   1.409       .  A
C1729      C1730   1.397       .  A
C1729      H1740   1.082       .  S
C1730      C1731   1.406       .  A
C1730      H1741   1.084       .  S
C1731      C1732   1.405       .  A
C1732      C1733   1.399       .  A
C1732      H1742   1.082       .  S
C1733      H1743   1.081       .  S
C1744      C1745   1.406       .  A
C1744      C1749   1.406       .  A
C1745      C1746   1.400       .  A
C1745      H1758   1.084       .  S
C1746      C1747   1.403       .  A
C1746      H1759   1.083       .  S
C1747      C1748   1.406       .  A
C1747      C1750   1.484       .  S
C1748      C1749   1.401       .  A
C1748      H1760   1.084       .  S
C1749      H1761   1.082       .  S
C1750      C1751   1.346       .  D
C1750      H1762   1.086       .  S
C1751      C1752   1.484       .  S
C1751      H1763   1.086       .  S
C1752      C1753   1.403       .  A
C1752      C1757   1.406       .  A
C1753      C1754   1.399       .  A
C1753      H1764   1.083       .  S
C1754      C1755   1.404       .  A
C1754      H1765   1.083       .  S
C1755      C1756   1.406       .  A
C1756      C1757   1.400       .  A
C1756      H1766   1.083       .  S
C1757      H1767   1.083       .  S
C1768      C1769   1.405       .  A
C1768      C1773   1.405       .  A
C1769      C1770   1.396       .  A
C1769      H1782   1.083       .  S
C1770      C1771   1.402       .  A
C1770      H1783   1.084       .  S
C1771      C1772   1.406       .  A
C1771      C1774   1.480       .  S
C1772      C1773   1.399       .  A
C1772      H1784   1.082       .  S
C1773      H1785   1.083       .  S
C1774      C1775   1.345       .  D
C1774      H1786   1.087       .  S
C1775      C1776   1.482       .  S
C1775      H1787   1.087       .  S
C1776      C1777   1.402       .  A
C1776      C1781   1.405       .  A
C1777      C1778   1.399       .  A
C1777      H1788   1.084       .  S
C1778      C1779   1.406   1_545  A
C1778      H1789   1.083       .  S
C1779      C1780   1.407       .  A
C1780      C1781   1.396   1_565  A
C1780      H1790   1.083       .  S
C1781      H1791   1.082       .  S
C1792      C1793   1.406       .  A
C1792      C1797   1.407       .  A
C1793      C1794   1.395       .  A
C1793      H1806   1.083       .  S
C1794      C1795   1.402   1_455  A
C1794      H1807   1.083       .  S
C1795      C1796   1.409       .  A
C1795      C1798   1.488       .  S
C1796      C1797   1.404   1_655  A
C1796      H1808   1.082       .  S
C1797      H1809   1.082       .  S
C1798      C1799   1.348       .  D
C1798      H1810   1.085       .  S
C1799      C1800   1.490       .  S
C1799      H1811   1.085       .  S
C1800      C1801   1.404       .  A
C1800      C1805   1.407       .  A
C1801      C1802   1.401       .  A
C1801      H1812   1.083       .  S
C1802      C1803   1.407       .  A
C1802      H1813   1.083       .  S
C1803      C1804   1.407       .  A
C1804      C1805   1.398       .  A
C1804      H1814   1.083       .  S
C1805      H1815   1.082       .  S
C1816      C1817   1.406       .  A
C1816      C1821   1.406       .  A
C1817      C1818   1.398       .  A
C1817      H1830   1.083       .  S
C1818      C1819   1.404       .  A
C1818      H1831   1.083       .  S
C1819      C1820   1.410       .  A
C1819      C1822   1.492       .  S
C1820      C1821   1.402       .  A
C1820      H1832   1.080       .  S
C1821      H1833   1.083       .  S
C1822      C1823   1.349       .  D
C1822      H1834   1.084       .  S
C1823      C1824   1.492       .  S
C1823      H1835   1.084       .  S
C1824      C1825   1.403       .  A
C1824      C1829   1.410       .  A
C1825      C1826   1.397       .  A
C1825      H1836   1.083       .  S
C1826      C1827   1.407       .  A
C1826      H1837   1.083       .  S
C1827      C1828   1.406       .  A
C1828      C1829   1.402       .  A
C1828      H1838   1.083       .  S
C1829      H1839   1.081       .  S
C1840      C1841   1.407       .  A
C1840      C1845   1.408       .  A
C1841      C1842   1.398       .  A
C1841      H1854   1.083       .  S
C1842      C1843   1.402       .  A
C1842      H1855   1.083       .  S
C1843      C1844   1.408       .  A
C1843      C1846   1.488       .  S
C1844      C1845   1.404       .  A
C1844      H1856   1.082       .  S
C1845      H1857   1.083       .  S
C1846      C1847   1.348       .  D
C1846      H1858   1.086       .  S
C1847      C1848   1.490       .  S
C1847      H1859   1.086       .  S
C1848      C1849   1.404       .  A
C1848      C1853   1.407       .  A
C1849      C1850   1.400       .  A
C1849      H1860   1.083       .  S
C1850      C1851   1.407       .  A
C1850      H1861   1.083   1_545  S
C1851      C1852   1.408       .  A
C1852      C1853   1.401       .  A
C1852      H1862   1.083   1_655  S
C1853      H1863   1.082       .  S
