geometry optimzed in LAMMPS
_audit_creation_date              2020-12-01 
_audit_creation_method            'lammps2cif' 
_symmetry_space_group_name_H-M    'P1' 
_symmetry_Int_Tables_number       1 
_symmetry_cell_setting            triclinic 
loop_ 
_symmetry_equiv_pos_as_xyz 
  x,y,z 
_cell_length_a                    25.90529844 
_cell_length_b                    25.84343979205727 
_cell_length_c                    76.09978184556115 
_cell_angle_alpha                 90.12776222097902 
_cell_angle_beta                  89.50134151966603 
_cell_angle_gamma                 90.31497398207551 
loop_ 
_atom_site_label 
_atom_site_type_symbol 
_atom_site_fract_x 
_atom_site_fract_y 
_atom_site_fract_z 
_atom_site_charge 
C1          C  0.50745919  0.00406875  0.25096506    -0.02100
C2          C  0.95032096  0.51014226  0.00842716     0.02700
C3          C  0.95286426  0.51496519  0.98991241     0.02600
C4          C  0.00132221  0.51646198  0.98163667    -0.17900
C5          C  0.04713025  0.51398158  0.99124819     0.02700
C6          C  0.04463691  0.51123319  0.00979331     0.02600
C7          C  0.99620173  0.50916726  0.01807243    -0.17900
H8          H  0.99416612  0.50643518  0.03228741     0.04700
H9          H  0.00346324  0.51915266  0.96741787     0.04700
C10         C  0.48908730  0.00352690  0.75013543    -0.02100
C11         C  0.00226905  0.49100195  0.75007114    -0.02100
C12         C  0.50139313  0.95505491  0.00978039     0.02700
C13         C  0.50649111  0.95593579  0.99123345     0.02600
C14         C  0.51089101  0.00355070  0.98252416    -0.17900
C15         C  0.50867920  0.05039641  0.99172532     0.02700
C16         C  0.50270339  0.04978277  0.01018992     0.02600
C17         C  0.49949303  0.00219279  0.01900352    -0.17900
H18         H  0.49524445  0.00185643  0.03319009     0.04700
H19         H  0.51486881  0.00416959  0.96832753     0.04700
N20         N  0.47553204  0.61655053  0.88300970    -0.05700
N21         N  0.45890071  0.64503469  0.89633246    -0.57900
N22         N  0.52357007  0.61350716  0.84200953    -0.05400
N23         N  0.54099732  0.64626462  0.83009117    -0.60000
N24         N  0.47285724  0.61373317  0.84252419    -0.05000
N25         N  0.45503236  0.64733843  0.83103779    -0.57800
N26         N  0.52622588  0.61690588  0.88233386    -0.04700
N27         N  0.54525607  0.64565323  0.89508045    -0.60300
C28         C  0.50292777  0.66279374  0.90374687     0.96400
C29         C  0.49802192  0.66716567  0.82318232     0.96200
N30         N  0.61137365  0.47849858  0.84254757    -0.05900
N31         N  0.64558316  0.46067567  0.83113066    -0.58400
N32         N  0.61258490  0.53401538  0.88219533    -0.04000
N33         N  0.64272690  0.55469342  0.89421605    -0.59700
N34         N  0.61421806  0.48323606  0.88282870    -0.05900
N35         N  0.64582857  0.46819560  0.89531041    -0.58700
N36         N  0.61077158  0.52938349  0.84212495    -0.03700
N37         N  0.64460335  0.54703010  0.83050797    -0.59800
Mn38       Mn  0.56899149  0.57433724  0.86206387     1.18400
C39         C  0.66588263  0.50379260  0.82360917     0.98500
C40         C  0.66296084  0.51323442  0.90234861     0.99200
N41         N  0.38653700  0.52419136  0.84477471    -0.06000
N42         N  0.35046021  0.53905190  0.83374079    -0.62300
N43         N  0.39228052  0.47970238  0.88600080    -0.04800
N44         N  0.36329054  0.46398178  0.89933858    -0.63000
N45         N  0.39136454  0.53044739  0.88481927    -0.05500
N46         N  0.36197672  0.55038073  0.89727670    -0.62500
N47         N  0.38679208  0.47340404  0.84592775    -0.04400
N48         N  0.35088753  0.45320261  0.83575817    -0.63200
Mn49       Mn  0.43049794  0.57231849  0.86359859     1.10700
C50         C  0.32838649  0.49439611  0.82803683     0.99700
C51         C  0.34497668  0.50861513  0.90626525     0.99800
N52         N  0.53018289  0.39515703  0.88519325    -0.05500
N53         N  0.54994080  0.36607682  0.89767171    -0.60900
N54         N  0.47480328  0.38856403  0.84578625    -0.04800
N55         N  0.45593211  0.35374141  0.83482593    -0.57600
N56         N  0.52561309  0.38914551  0.84498549    -0.06100
N57         N  0.54224863  0.35436167  0.83354468    -0.60400
N58         N  0.47942916  0.39428580  0.88605350    -0.05100
N59         N  0.46359089  0.36442083  0.89911972    -0.57600
Mn60       Mn  0.57138213  0.43544932  0.86378411     1.20200
Mn61       Mn  0.43239870  0.43295975  0.86596538     1.10100
Cl62       Cl  0.50075610  0.50365291  0.86370765    -0.85600
C63         C  0.50798783  0.34776308  0.90636152     0.96800
C64         C  0.49835167  0.33296719  0.82718461     0.96600
N65         N  0.47711165  0.61593299  0.15749354    -0.05700
N66         N  0.46282181  0.65105187  0.16921913    -0.57900
N67         N  0.52164891  0.61250977  0.11596253    -0.05400
N68         N  0.53737381  0.64021851  0.10231853    -0.60000
N69         N  0.47097881  0.61315093  0.11717369    -0.05000
N70         N  0.45120049  0.64103381  0.10443835    -0.57800
N71         N  0.52778984  0.61435711  0.15639382    -0.04700
N72         N  0.54871829  0.64767221  0.16741381    -0.60300
C73         C  0.50799059  0.67041649  0.17543708     0.96400
C74         C  0.49289839  0.65764666  0.09523722     0.96200
N75         N  0.60607264  0.47534577  0.11502154    -0.05900
N76         N  0.63571657  0.45670544  0.10235354    -0.58400
N77         N  0.61210937  0.52673035  0.15522252    -0.04000
N78         N  0.64619267  0.54438247  0.16658912    -0.59700
N79         N  0.61169047  0.47585057  0.15521392    -0.05900
N80         N  0.64591879  0.45819134  0.16646752    -0.58700
N81         N  0.60722782  0.52617981  0.11500023    -0.03700
N82         N  0.63805030  0.54334359  0.10238917    -0.59800
Mn83       Mn  0.56806546  0.57099158  0.13564490     1.18400
C84         C  0.65505355  0.49957393  0.09453947     0.98500
C85         C  0.66717640  0.50134336  0.17366631     0.99200
N86         N  0.38345281  0.52979627  0.11874205    -0.06000
N87         N  0.35282073  0.54830488  0.10648910    -0.62300
N88         N  0.38681533  0.47819158  0.15890971    -0.04800
N89         N  0.35196643  0.46064844  0.17022081    -0.63000
N90         N  0.38745970  0.52921427  0.15896653    -0.05500
N91         N  0.35272389  0.54715606  0.17020473    -0.62500
N92         N  0.38235795  0.47891715  0.11865488    -0.04400
N93         N  0.35068242  0.46173914  0.10641518    -0.63200
Mn94       Mn  0.42892029  0.57310052  0.13828047     1.10700
C95         C  0.33273874  0.50541863  0.09886985     0.99700
C96         C  0.33157288  0.50401022  0.17734881     0.99800
N97         N  0.52330491  0.38979545  0.15626076    -0.05500
N98         N  0.54238432  0.35514740  0.16707515    -0.60900
N99         N  0.46774069  0.39270041  0.11671042    -0.04800
N100        N  0.44833394  0.36477665  0.10376132    -0.57600
N101        N  0.51850782  0.39199511  0.11606867    -0.06100
N102        N  0.53473417  0.36355476  0.10273229    -0.60400
N103        N  0.47252085  0.38964652  0.15710574    -0.05100
N104        N  0.45618278  0.35466843  0.16855810    -0.57600
Mn105      Mn  0.56567580  0.43224675  0.13573243     1.20200
Mn106      Mn  0.42640282  0.43377947  0.13795530     1.10100
Cl107      Cl  0.49722591  0.50251979  0.13706148    -0.85600
C108        C  0.50024163  0.33368140  0.17475946     0.96800
C109        C  0.49062792  0.34747551  0.09506997     0.96600
N110        N  0.10762768  0.01733365  0.65483380    -0.05700
N111        N  0.14122484  0.03573367  0.66622782    -0.57900
N112        N  0.10351473  0.96893596  0.61402829    -0.05400
N113        N  0.13331414  0.95314499  0.60091685    -0.60000
N114        N  0.10254466  0.01972687  0.61463492    -0.05000
N115        N  0.13168810  0.03969261  0.60206276    -0.57800
N116        N  0.10938123  0.96643435  0.65434438    -0.04700
N117        N  0.14459898  0.94924440  0.66532018    -0.60300
C118        C  0.16365510  0.99290054  0.67278351     0.96400
C119        C  0.15009485  0.99779124  0.59350414     0.96200
N120        N  0.96764093  0.88135280  0.61577586    -0.05900
N121        N  0.94838216  0.85448736  0.60257747    -0.58400
N122        N  0.02406790  0.87688735  0.65490470    -0.04000
N123        N  0.04375584  0.84159279  0.66539092    -0.59700
N124        N  0.97330393  0.87625785  0.65601051    -0.05900
N125        N  0.95756617  0.84065278  0.66728101    -0.58700
N126        N  0.01834912  0.88253464  0.61479367    -0.03700
N127        N  0.03473107  0.85630879  0.60098178    -0.59800
Mn128      Mn  0.06489921  0.92251322  0.63457383     1.18400
C129        C  0.99068645  0.83952689  0.59342872     0.98500
C130        C  0.00186398  0.81962354  0.67314008     0.99200
N131        N  0.01528816  0.10212476  0.61634155    -0.06000
N132        N  0.03115779  0.13185401  0.60326941    -0.62300
N133        N  0.96948507  0.10070517  0.65750846    -0.04800
N134        N  0.95316170  0.13418429  0.66939695    -0.63000
N135        N  0.02012235  0.10197674  0.65644329    -0.05500
N136        N  0.03893745  0.13654983  0.66743844    -0.62500
N137        N  0.96459409  0.10094500  0.61717495    -0.04400
N138        N  0.94488885  0.12983597  0.60466148    -0.63200
Mn139      Mn  0.06224995  0.06121761  0.63564463     1.10700
C140        C  0.98683017  0.14875681  0.59604935     0.99700
C141        C  0.99690141  0.15630193  0.67563673     0.99800
N142        N  0.88437170  0.96160937  0.65851424    -0.05500
N143        N  0.85041640  0.94297963  0.66995408    -0.60900
N144        N  0.88000113  0.01384029  0.61836285    -0.04800
N145        N  0.84941296  0.03118670  0.60593801    -0.57600
N146        N  0.88033353  0.96300458  0.61839347    -0.06100
N147        N  0.84982776  0.94446460  0.60609072    -0.60400
N148        N  0.88326733  0.01254125  0.65858094    -0.05100
N149        N  0.84853558  0.02928632  0.67002479    -0.57600
Mn150      Mn  0.92558237  0.91942047  0.63735805     1.20200
Mn151      Mn  0.92338624  0.05808982  0.63801668     1.10100
Cl152      Cl  0.99402080  0.99026471  0.63658207    -0.85600
C153        C  0.82847656  0.98559619  0.67719530     0.96800
C154        C  0.83116409  0.98741005  0.59840976     0.96600
N155        N  0.11582158  0.96875237  0.34350461    -0.05700
N156        N  0.15116274  0.95099645  0.33245368    -0.57900
N157        N  0.11596385  0.01873417  0.38391858    -0.05400
N158        N  0.14499740  0.03596223  0.39686865    -0.60000
N159        N  0.11545916  0.96782681  0.38366517    -0.05000
N160        N  0.14435428  0.94931257  0.39635639    -0.57800
N161        N  0.11635881  0.01975485  0.34359542    -0.04700
N162        N  0.15181380  0.03749265  0.33254130    -0.60300
C163        C  0.17287082  0.99425140  0.32555168     0.96400
C164        C  0.16219209  0.99223790  0.40452558     0.96200
N165        N  0.98159146  0.10595253  0.38517051    -0.05900
N166        N  0.96446959  0.13382944  0.39849870    -0.58400
N167        N  0.03066535  0.10819091  0.34438192    -0.04000
N168        N  0.04844505  0.14317589  0.33318447    -0.59700
N169        N  0.97981922  0.10910407  0.34493367    -0.05900
N170        N  0.96217657  0.14494153  0.33422776    -0.58700
N171        N  0.03231371  0.10579202  0.38474632    -0.03700
N172        N  0.05092099  0.13401021  0.39773432    -0.59800
Mn173      Mn  0.07486617  0.06413902  0.36403888     1.18400
C174        C  0.00808527  0.15073945  0.40625160     0.98500
C175        C  0.00530308  0.16526009  0.32677278     0.99200
N176        N  0.02831623  0.88292612  0.38424953    -0.06000
N177        N  0.04533947  0.85204639  0.39674046    -0.62300
N178        N  0.97510511  0.88505097  0.34442340    -0.04800
N179        N  0.95463413  0.85275555  0.33300429    -0.63000
N180        N  0.02582062  0.88277065  0.34381264    -0.05500
N181        N  0.04068517  0.84818408  0.33199188    -0.62500
N182        N  0.97760690  0.88439117  0.38456686    -0.04400
N183        N  0.95895735  0.85452588  0.39713615    -0.63200
Mn184      Mn  0.07247719  0.92442724  0.36367254     1.10700
C185        C  0.00151230  0.83492370  0.40469256     0.99700
C186        C  0.99572945  0.82994976  0.32526768     0.99800
N187        N  0.89097911  0.02270623  0.34558671    -0.05500
N188        N  0.85629235  0.04011388  0.33446815    -0.60900
N189        N  0.89461685  0.97154566  0.38591308    -0.04800
N190        N  0.86583463  0.95420153  0.39907372    -0.57600
N191        N  0.89525712  0.02237600  0.38579295    -0.06100
N192        N  0.86697489  0.04082243  0.39882433    -0.60400
N193        N  0.89099696  0.97187084  0.34553867    -0.05100
N194        N  0.85700761  0.95386295  0.33425514    -0.57600
Mn195      Mn  0.93596794  0.06606398  0.36523111     1.20200
Mn196      Mn  0.93375652  0.92738846  0.36507115     1.10100
Cl197      Cl  0.00435895  0.99552112  0.36432343    -0.85600
C198        C  0.83547612  0.99668326  0.32732949     0.96800
C199        C  0.84921027  0.99793687  0.40706251     0.96600
C200        C  0.97820754  0.54135850  0.50932514     0.02700
C201        C  0.97909846  0.53970087  0.49074707     0.02600
C202        C  0.97881082  0.49163806  0.48226732    -0.17900
C203        C  0.97964116  0.44532356  0.49176629     0.02700
C204        C  0.97954595  0.44675792  0.51034657     0.02600
C205        C  0.97809411  0.49490041  0.51885053    -0.17900
H206        H  0.97773196  0.49627075  0.53304718     0.04700
H207        H  0.97943851  0.49025308  0.46806710     0.04700
C208        C  0.54619973  0.99438657  0.50981971     0.02700
C209        C  0.54747996  0.99534545  0.49124208     0.02600
C210        C  0.50086881  0.99634357  0.48205321    -0.17900
C211        C  0.45321082  0.99679144  0.49091581     0.02700
C212        C  0.45213394  0.99578229  0.50948316     0.02600
C213        C  0.49858922  0.99424522  0.51863411    -0.17900
H214        H  0.49769178  0.99347854  0.53288977     0.04700
H215        H  0.50169107  0.99700037  0.46780091     0.04700
C216        C  0.99548135  0.49570822  0.25100892    -0.02100
C217        C  0.94807277  0.70408237  0.30436927    -0.05100
C218        C  0.98656151  0.69503919  0.29149923     0.09100
C219        C  0.02584240  0.73254116  0.28880647    -0.02500
C220        C  0.02788139  0.77739779  0.29943611    -0.00700
C221        C  0.99142445  0.78468082  0.31313929    -0.04300
C222        C  0.95110533  0.74780327  0.31542253     0.02700
C223        C  0.98667350  0.64476091  0.28148010     0.09500
C224        C  0.06428301  0.72545288  0.27506572     0.35400
C225        C  0.91384047  0.75288014  0.32967862     0.38800
C226        C  0.97580045  0.64338047  0.26348116    -0.04700
C227        C  0.98020442  0.59660152  0.25385528     0.02500
C228        C  0.98930784  0.54759081  0.26249156    -0.04300
C229        C  0.99114987  0.55005861  0.28145112    -0.00500
C230        C  0.99542441  0.59803296  0.29031474    -0.03100
C231        C  0.96109228  0.69093970  0.25472408     0.36200
C232        C  0.98257710  0.50605620  0.29283186     0.39800
C233        C  0.97940835  0.60176585  0.23488609     0.38900
C234        C  0.00801094  0.59928574  0.30891912     0.35800
C235        C  0.90535793  0.66785023  0.30635470     0.36500
C236        C  0.06689657  0.81664971  0.29592495     0.39800
N237        N  0.97892309  0.60956116  0.21991910    -0.38300
N238        N  0.94930452  0.72883580  0.24778963    -0.39900
N239        N  0.97437613  0.47283756  0.30264677    -0.37600
N240        N  0.01792522  0.60026207  0.32371646    -0.40000
N241        N  0.09495433  0.72113896  0.26402041    -0.39800
N242        N  0.09787311  0.84801714  0.29304171    -0.37400
N243        N  0.88414330  0.75665343  0.34105709    -0.38500
N244        N  0.87141727  0.63889223  0.30796133    -0.40100
C245        C  0.02520516  0.25983369  0.28895909    -0.05100
C246        C  0.00794574  0.30659347  0.29659553     0.09100
C247        C  0.99011465  0.30674613  0.31418034    -0.02500
C248        C  0.98963747  0.26054175  0.32404414    -0.00700
C249        C  0.00579976  0.21358958  0.31626702    -0.04300
C250        C  0.02309731  0.21332077  0.29864916     0.02700
C251        C  0.00466682  0.35449636  0.28552934     0.09500
C252        C  0.97152067  0.35416231  0.32213680     0.35400
C253        C  0.03528290  0.16470545  0.29012064     0.38800
C254        C  0.96089518  0.36279364  0.27531725    -0.04700
C255        C  0.95982619  0.40326000  0.26285458     0.02500
C256        C  0.99846041  0.44404308  0.26279580    -0.04300
C257        C  0.04342392  0.43358757  0.27340201    -0.00500
C258        C  0.04658952  0.38865849  0.28403948    -0.03100
C259        C  0.91730963  0.32735682  0.27708100     0.36200
C260        C  0.08662047  0.46923167  0.27466045     0.39800
C261        C  0.92340559  0.39498142  0.24878370     0.38900
C262        C  0.09305942  0.37782309  0.29391708     0.35800
C263        C  0.04452970  0.25964284  0.27101141     0.36500
C264        C  0.97279361  0.26139603  0.34228690     0.39800
N265        N  0.89493070  0.38554066  0.23758096    -0.38300
N266        N  0.88262126  0.29927141  0.27860741    -0.39900
N267        N  0.12281175  0.49489678  0.27673320    -0.37600
N268        N  0.13012196  0.36906182  0.30172769    -0.40000
N269        N  0.95625246  0.39133424  0.32884597    -0.39800
N270        N  0.95942627  0.26199694  0.35683782    -0.37400
N271        N  0.04372463  0.12586455  0.28311549    -0.38500
N272        N  0.06021286  0.25976176  0.25672551    -0.40100
C273        C  0.97841072  0.21763327  0.44951719    -0.05100
C274        C  0.99986405  0.26701557  0.44637071     0.09100
C275        C  0.02619366  0.27734263  0.43044854    -0.02500
C276        C  0.03042562  0.23854930  0.41754933    -0.00700
C277        C  0.00822371  0.18932219  0.42053819    -0.04300
C278        C  0.98250862  0.17874751  0.43658583     0.02700
C279        C  0.99280127  0.30936879  0.45941946     0.09500
C280        C  0.04734354  0.32856088  0.42712516     0.35400
C281        C  0.96046953  0.12787475  0.43980789     0.38800
C282        C  0.03398348  0.32406188  0.47035330    -0.04700
C283        C  0.02957017  0.36815704  0.48112648     0.02500
C284        C  0.98305529  0.39645837  0.48153669    -0.04300
C285        C  0.94185966  0.38163686  0.47048870    -0.00500
C286        C  0.94664890  0.33797086  0.45955989    -0.03100
C287        C  0.08171579  0.29495191  0.46989890     0.36200
C288        C  0.89551277  0.41284722  0.46965586     0.39800
C289        C  0.07469084  0.38715689  0.49029799     0.38900
C290        C  0.90493154  0.32363671  0.44787671     0.35800
C291        C  0.95134576  0.20742836  0.46592788     0.36500
C292        C  0.05488988  0.25033925  0.40078503     0.39800
N293        N  0.11150589  0.40219963  0.49717790    -0.38300
N294        N  0.11981472  0.27179641  0.46946677    -0.39900
N295        N  0.85871644  0.43792585  0.46891789    -0.37600
N296        N  0.87173696  0.31220647  0.43853297    -0.40000
N297        N  0.06412327  0.36944408  0.42450945    -0.39800
N298        N  0.07412215  0.25972543  0.38737463    -0.37400
N299        N  0.94292757  0.08729431  0.44241130    -0.38500
N300        N  0.92962951  0.19968083  0.47902277    -0.40100
C301        C  0.01947430  0.76433515  0.44802500    -0.05100
C302        C  0.99145114  0.71834901  0.44485419     0.09100
C303        C  0.96711035  0.71065474  0.42855110    -0.02500
C304        C  0.97099204  0.74862319  0.41538803    -0.00700
C305        C  0.99938993  0.79457408  0.41844504    -0.04300
C306        C  0.02394521  0.80223433  0.43475218     0.02700
C307        C  0.99037696  0.67577829  0.45805512     0.09500
C308        C  0.93866573  0.66309316  0.42526944     0.35400
C309        C  0.05300639  0.84939253  0.43796272     0.38800
C310        C  0.94670131  0.66836305  0.46895930    -0.04700
C311        C  0.94216801  0.62336089  0.47931414     0.02500
C312        C  0.98285504  0.58715305  0.47965234    -0.04300
C313        C  0.02677103  0.59497420  0.46872362    -0.00500
C314        C  0.03041997  0.63912850  0.45799903    -0.03100
C315        C  0.90591045  0.70657893  0.46915966     0.36200
C316        C  0.06787229  0.55699015  0.46815639     0.39800
C317        C  0.89376978  0.61221908  0.48825382     0.38900
C318        C  0.07474916  0.64623002  0.44644409     0.35800
C319        C  0.04322116  0.77257813  0.46499364     0.36500
C320        C  0.94748418  0.73929918  0.39841460     0.39800
N321        N  0.85447226  0.60342524  0.49497893    -0.38300
N322        N  0.87350430  0.73722328  0.46939134    -0.39900
N323        N  0.10051104  0.52659954  0.46768661    -0.37600
N324        N  0.10997815  0.65198106  0.43718602    -0.40000
N325        N  0.91600012  0.62512549  0.42274287    -0.39800
N326        N  0.92891157  0.73172625  0.38486601    -0.37400
N327        N  0.07630286  0.88698986  0.44047934    -0.38500
N328        N  0.06186492  0.77907455  0.47859246    -0.40100
C329        C  0.22811556  0.01873607  0.44807439    -0.05100
C330        C  0.27656431  0.99571908  0.44503037     0.09100
C331        C  0.28658046  0.96966825  0.42908718    -0.02500
C332        C  0.24815858  0.96642017  0.41620901    -0.00700
C333        C  0.20048151  0.99167487  0.41880680    -0.04300
C334        C  0.19043864  0.01776684  0.43480448     0.02700
C335        C  0.31790624  0.99881620  0.45844912     0.09500
C336        C  0.33696335  0.94698939  0.42584689     0.35400
C337        C  0.14095864  0.04245576  0.43776815     0.38800
C338        C  0.32772008  0.95568139  0.46916305    -0.04700
C339        C  0.37233311  0.95455668  0.47956099     0.02500
C340        C  0.40537874  0.99818828  0.48027122    -0.04300
C341        C  0.39505220  0.04171055  0.46963097    -0.00500
C342        C  0.35151880  0.04185085  0.45869556    -0.03100
C343        C  0.29294001  0.91147829  0.46881920     0.36200
C344        C  0.43067535  0.08524932  0.46919042     0.39800
C345        C  0.38701130  0.90636158  0.48776376     0.38900
C346        C  0.34252561  0.08518643  0.44704550     0.35800
C347        C  0.21709866  0.04271430  0.46492784     0.36500
C348        C  0.25840361  0.93780096  0.40017366     0.39800
N349        N  0.39842575  0.86689309  0.49368149    -0.38300
N350        N  0.26507861  0.87633768  0.46852507    -0.39900
N351        N  0.45935356  0.11973144  0.46872785    -0.37600
N352        N  0.33544651  0.11958171  0.43767442    -0.40000
N353        N  0.37725183  0.92921581  0.42329276    -0.39800
N354        N  0.26695009  0.91422560  0.38755923    -0.37400
N355        N  0.10147398  0.06216456  0.44011421    -0.38500
N356        N  0.20840082  0.06138577  0.47846218    -0.40100
C357        C  0.67457090  0.03993232  0.47045019    -0.05100
C358        C  0.68679189  0.99707345  0.45974186     0.09100
C359        C  0.65404165  0.95334261  0.45962288    -0.02500
C360        C  0.60885151  0.95264339  0.47002427    -0.00700
C361        C  0.59658767  0.99541030  0.48090300    -0.04300
C362        C  0.62898586  0.03961559  0.48070024     0.02700
C363        C  0.73052869  0.00020078  0.44690279     0.09500
C364        C  0.66602353  0.90979514  0.44825184     0.35400
C365        C  0.61303320  0.08671711  0.48950901     0.38800
C366        C  0.77720993  0.97413979  0.45010733    -0.04700
C367        C  0.81627654  0.97302180  0.43706800     0.02500
C368        C  0.80905507  0.99905181  0.42097832    -0.04300
C369        C  0.76260927  0.02589397  0.41795465    -0.00500
C370        C  0.72351317  0.02644705  0.43087949    -0.03100
C371        C  0.78475560  0.94859795  0.46683228     0.36200
C372        C  0.75373769  0.05061474  0.40113926     0.39800
C373        C  0.86388954  0.94542313  0.44024697     0.38900
C374        C  0.67541332  0.05310429  0.42754494     0.35800
C375        C  0.70809553  0.08509445  0.47038221     0.36500
C376        C  0.57373833  0.90883998  0.46884367     0.39800
N377        N  0.90178467  0.92323165  0.44278262    -0.38300
N378        N  0.79056289  0.92846145  0.48023399    -0.39900
N379        N  0.74669903  0.07004829  0.38769016    -0.37600
N380        N  0.63711577  0.07447225  0.42491711    -0.40000
N381        N  0.67577128  0.87517072  0.43916612    -0.39800
N382        N  0.54556122  0.87408289  0.46778806    -0.37400
N383        N  0.60056328  0.12519244  0.49603822    -0.38500
N384        N  0.73484102  0.12111069  0.47029373    -0.40100
C385        C  0.33008880  0.04503599  0.53207637    -0.05100
C386        C  0.31527087  0.00136883  0.54200156     0.09100
C387        C  0.34458169  0.95567339  0.54101287    -0.02500
C388        C  0.38893731  0.95371066  0.53024867    -0.00700
C389        C  0.40342035  0.99706693  0.51997412    -0.04300
C390        C  0.37452194  0.04318262  0.52127410     0.02700
C391        C  0.27127411  0.00438321  0.55469907     0.09500
C392        C  0.32980132  0.91114454  0.55153786     0.35400
C393        C  0.39301651  0.09013900  0.51289776     0.38800
C394        C  0.22236336  0.98462179  0.55010081    -0.04700
C395        C  0.18241835  0.98233156  0.56278963     0.02500
C396        C  0.19119722  0.00070594  0.57998414    -0.04300
C397        C  0.23975250  0.02192420  0.58440995    -0.00500
C398        C  0.27974581  0.02363091  0.57179472    -0.03100
C399        C  0.21350982  0.96660694  0.53231240     0.36200
C400        C  0.24927558  0.03999916  0.60217564     0.39800
C401        C  0.13223643  0.96157956  0.55813585     0.38900
C402        C  0.33003831  0.04420013  0.57647587     0.35800
C403        C  0.30041339  0.09232672  0.53345035     0.36500
C404        C  0.42108051  0.90789685  0.53047481     0.39800
N405        N  0.09218376  0.94501487  0.55442083    -0.38300
N406        N  0.20677570  0.95252162  0.51806460    -0.39900
N407        N  0.25677080  0.05423313  0.61636242    -0.37600
N408        N  0.37013402  0.06065773  0.58018984    -0.40000
N409        N  0.31786402  0.87572479  0.55994726    -0.39800
N410        N  0.44692348  0.87152406  0.53079129    -0.37400
N411        N  0.40772270  0.12829403  0.50664554    -0.38500
N412        N  0.27675682  0.13006181  0.53457792    -0.40100
C413        C  0.66687779  0.94823558  0.53309542    -0.05100
C414        C  0.67649013  0.99036212  0.54438849     0.09100
C415        C  0.64478624  0.03439907  0.54391053    -0.02500
C416        C  0.60349072  0.03647320  0.53208747    -0.00700
C417        C  0.59344638  0.99416697  0.52074297    -0.04300
C418        C  0.62463768  0.94954539  0.52158911     0.02700
C419        C  0.71741645  0.98688251  0.55788994     0.09500
C420        C  0.65338829  0.07658539  0.55618232     0.35400
C421        C  0.61047510  0.90301662  0.51209045     0.38800
C422        C  0.76720576  0.00668694  0.55435911    -0.04700
C423        C  0.80463606  0.00696865  0.56766296     0.02500
C424        C  0.79245764  0.98647535  0.58436808    -0.04300
C425        C  0.74302951  0.96527420  0.58772574    -0.00500
C426        C  0.70539444  0.96587706  0.57452479    -0.03100
C427        C  0.77962155  0.02673858  0.53703736     0.36200
C428        C  0.73029782  0.94451781  0.60494627     0.39800
C429        C  0.85587234  0.02755277  0.56411159     0.38900
C430        C  0.65392335  0.94583080  0.57809878     0.35800
C431        C  0.69928475  0.90270349  0.53390155     0.36500
C432        C  0.56972395  0.08114175  0.53227665     0.39800
N433        N  0.89679092  0.04392330  0.56131493    -0.38300
N434        N  0.78932770  0.04247361  0.52316457    -0.39900
N435        N  0.72012943  0.92800697  0.61867976    -0.37600
N436        N  0.61279888  0.93000191  0.58090150    -0.40000
N437        N  0.66007281  0.10996941  0.56607803    -0.39800
N438        N  0.54255796  0.11654953  0.53251753    -0.37400
N439        N  0.59944015  0.86492149  0.50501115    -0.38500
N440        N  0.72516935  0.86642019  0.53457280    -0.40100
C441        C  0.02643908  0.34744292  0.54359447    -0.05100
C442        C  0.98637595  0.31030701  0.54310326     0.09100
C443        C  0.94464125  0.31720265  0.53158471    -0.02500
C444        C  0.94146380  0.36237555  0.52132063    -0.00700
C445        C  0.98224406  0.39898073  0.52134494    -0.04300
C446        C  0.02465166  0.39138465  0.53268168     0.02700
C447        C  0.98513108  0.26709563  0.55614907     0.09500
C448        C  0.90413261  0.27828078  0.53071797     0.35400
C449        C  0.06577024  0.42965629  0.53362290     0.38800
C450        C  0.95095875  0.26978511  0.57066465    -0.04700
C451        C  0.95057415  0.23047406  0.58343887     0.02500
C452        C  0.98478411  0.18816652  0.58188762    -0.04300
C453        C  0.01859444  0.18517336  0.56720225    -0.00500
C454        C  0.01862629  0.22451168  0.55435620    -0.03100
C455        C  0.91689383  0.31388135  0.57267235     0.36200
C456        C  0.05269125  0.14117517  0.56507574     0.39800
C457        C  0.91652498  0.23523788  0.59860283     0.38900
C458        C  0.05326094  0.22145781  0.53931049     0.35800
C459        C  0.06880147  0.34114534  0.55574515     0.36500
C460        C  0.89374511  0.37338786  0.51232476     0.39800
N461        N  0.88935678  0.23913812  0.61068269    -0.38300
N462        N  0.88963409  0.34895663  0.57421328    -0.39900
N463        N  0.07989195  0.10610415  0.56335197    -0.37600
N464        N  0.08100455  0.21928578  0.52733181    -0.40000
N465        N  0.87195056  0.24712134  0.53004853    -0.39800
N466        N  0.85458000  0.38164905  0.50573284    -0.37400
N467        N  0.09838420  0.46033553  0.53444692    -0.38500
N468        N  0.10259543  0.33602181  0.56542345    -0.40100
C469        C  0.01035262  0.71425693  0.56873537    -0.05100
C470        C  0.98314929  0.72383635  0.55313234     0.09100
C471        C  0.96005725  0.77233160  0.55032027    -0.02500
C472        C  0.96290084  0.81089555  0.56342344    -0.00700
C473        C  0.98940983  0.80088700  0.57918642    -0.04300
C474        C  0.01352963  0.75268514  0.58173179     0.02700
C475        C  0.97813759  0.68151576  0.54001524     0.09500
C476        C  0.93372192  0.78228581  0.53394264     0.35400
C477        C  0.03983178  0.74168143  0.59805433     0.38800
C478        C  0.93635625  0.64659001  0.54129620    -0.04700
C479        C  0.93536434  0.60200590  0.53067823     0.02500
C480        C  0.97756351  0.59082713  0.51936746    -0.04300
C481        C  0.02018038  0.62522139  0.51862707    -0.00500
C482        C  0.01909346  0.67175616  0.52822735    -0.03100
C483        C  0.89583231  0.65522800  0.55424348     0.36200
C484        C  0.06748940  0.61060258  0.50967490     0.39800
C485        C  0.89162230  0.56677680  0.53186358     0.38900
C486        C  0.06121990  0.70873908  0.52662662     0.35800
C487        C  0.03442578  0.66435202  0.57149969     0.36500
C488        C  0.93946012  0.86099647  0.56057791     0.39800
N489        N  0.85680729  0.53862809  0.53279863    -0.38300
N490        N  0.86389222  0.66187631  0.56472027    -0.39900
N491        N  0.10627908  0.59952847  0.50306359    -0.37600
N492        N  0.09455080  0.73850510  0.52529042    -0.40000
N493        N  0.91295055  0.79002847  0.52081155    -0.39800
N494        N  0.92084693  0.90099185  0.55825886    -0.37400
N495        N  0.06074155  0.73291862  0.61107686    -0.38500
N496        N  0.05361300  0.62456099  0.57365164    -0.40100
C497        C  0.12771581  0.54055484  0.22805537    -0.05100
C498        C  0.14109106  0.49689151  0.21820860     0.09100
C499        C  0.11138313  0.45168277  0.21988336    -0.02500
C500        C  0.06549489  0.45122898  0.23022115    -0.00700
C501        C  0.04893459  0.49639900  0.24000812    -0.04300
C502        C  0.08574214  0.53894280  0.24002767     0.02700
C503        C  0.18980002  0.49749036  0.20739941     0.09500
C504        C  0.12765718  0.40559333  0.21040952     0.35400
C505        C  0.08919795  0.57715211  0.25392318     0.38800
C506        C  0.23632860  0.47988309  0.21478904    -0.04700
C507        C  0.28311319  0.48402797  0.20524586     0.02500
C508        C  0.28337724  0.50382962  0.18800215    -0.04300
C509        C  0.23688895  0.52164189  0.18061356    -0.00500
C510        C  0.19042198  0.51931701  0.19040458    -0.03100
C511        C  0.23604986  0.45846475  0.23239231     0.36200
C512        C  0.23670485  0.54182999  0.16282775     0.39800
C513        C  0.33142229  0.47124611  0.21359063     0.38900
C514        C  0.14355152  0.54041794  0.18309684     0.35800
C515        C  0.15995577  0.58674464  0.22666216     0.36500
C516        C  0.03535610  0.40384605  0.22959954     0.39800
N517        N  0.37001003  0.46237765  0.22047114    -0.38300
N518        N  0.23551603  0.44123032  0.24641562    -0.39900
N519        N  0.23661532  0.55786454  0.14863856    -0.37600
N520        N  0.10669577  0.55803188  0.17711933    -0.40000
N521        N  0.14079208  0.36888844  0.20290792    -0.39800
N522        N  0.01428239  0.36443577  0.22831860    -0.37400
N523        N  0.09550852  0.60712102  0.26502484    -0.38500
N524        N  0.18562144  0.62339502  0.22551006    -0.40100
C525        C  0.84847305  0.50376094  0.23689032    -0.05100
C526        C  0.85008013  0.49704855  0.21865008     0.09100
C527        C  0.89799768  0.49138854  0.21022375    -0.02500
C528        C  0.94475795  0.49404169  0.21979481    -0.00700
C529        C  0.94477443  0.49605474  0.23884410    -0.04300
C530        C  0.89423818  0.50184491  0.24695809     0.02700
C531        C  0.80128867  0.49892716  0.20802243     0.09500
C532        C  0.89895046  0.48446968  0.19122865     0.35400
C533        C  0.88673089  0.50258238  0.26586384     0.38800
C534        C  0.78825702  0.54450713  0.19899042    -0.04700
C535        C  0.74406430  0.54602450  0.18822145     0.02500
C536        C  0.71207052  0.50139110  0.18620623    -0.04300
C537        C  0.72460589  0.45619844  0.19589204    -0.00500
C538        C  0.76884278  0.45514440  0.20666697    -0.03100
C539        C  0.82101912  0.58999754  0.20068457     0.36200
C540        C  0.69196814  0.41041820  0.19514164     0.39800
C541        C  0.73297097  0.59378353  0.17903952     0.38900
C542        C  0.78100300  0.40854365  0.21633088     0.35800
C543        C  0.79872002  0.51214047  0.24538706     0.36500
C544        C  0.99038295  0.50052208  0.20892620     0.39800
N545        N  0.72441291  0.63214718  0.17182877    -0.38300
N546        N  0.84728905  0.62613525  0.20201444    -0.39900
N547        N  0.66630005  0.37364402  0.19462044    -0.37600
N548        N  0.78963871  0.37098483  0.22398385    -0.40000
N549        N  0.89961901  0.47905623  0.17612827    -0.39800
N550        N  0.02450601  0.50679377  0.19923677    -0.37400
N551        N  0.87659535  0.50287045  0.28070256    -0.38500
N552        N  0.75906556  0.51888881  0.25210175    -0.40100
C553        C  0.54004333  0.17408348  0.03402148    -0.05100
C554        C  0.49201569  0.18967975  0.04101591     0.09100
C555        C  0.44725377  0.16042453  0.03742986    -0.02500
C556        C  0.45080480  0.11451355  0.02747663    -0.00700
C557        C  0.49900401  0.09846905  0.02060539    -0.04300
C558        C  0.54381517  0.12776522  0.02430502     0.02700
C559        C  0.49027000  0.23102131  0.05472499     0.09500
C560        C  0.39780778  0.17693390  0.04447341     0.35400
C561        C  0.59435867  0.10753861  0.01991087     0.38800
C562        C  0.47935406  0.28280803  0.05033866    -0.04700
C563        C  0.47911650  0.32129048  0.06354899     0.02500
C564        C  0.48923127  0.30773876  0.08113582    -0.04300
C565        C  0.49923681  0.25581171  0.08552724    -0.00500
C566        C  0.49990357  0.21759156  0.07235559    -0.03100
C567        C  0.46815777  0.29623595  0.03230127     0.36200
C568        C  0.50825780  0.24162086  0.10368424     0.39800
C569        C  0.46943168  0.37483822  0.05904557     0.38900
C570        C  0.51039999  0.16418571  0.07691111     0.35800
C571        C  0.58583977  0.20501842  0.03736289     0.36500
C572        C  0.40550120  0.08195337  0.02539292     0.39800
N573        N  0.46188603  0.41761247  0.05545260    -0.38300
N574        N  0.45881429  0.30693186  0.01792494    -0.39900
N575        N  0.51526021  0.23040143  0.11817927    -0.37600
N576        N  0.51874415  0.12153711  0.08045279    -0.40000
N577        N  0.35838882  0.19037625  0.05004723    -0.39800
N578        N  0.36946396  0.05564400  0.02400503    -0.37400
N579        N  0.63513880  0.09137483  0.01703996    -0.38500
N580        N  0.62223865  0.22996489  0.03994429    -0.40100
C581        C  0.51931003  0.72600132  0.05164878    -0.05100
C582        C  0.48941683  0.77117686  0.05370634     0.09100
C583        C  0.45790093  0.77707200  0.06879434    -0.02500
C584        C  0.45834697  0.73949655  0.08217432    -0.00700
C585        C  0.49013794  0.69533242  0.08053768    -0.04300
C586        C  0.51970725  0.68815021  0.06502324     0.02700
C587        C  0.49444787  0.81500157  0.04091868     0.09500
C588        C  0.42603763  0.82277325  0.07080856     0.35400
C589        C  0.54978216  0.64141683  0.06265701     0.38800
C590        C  0.45356678  0.82718453  0.02954031    -0.04700
C591        C  0.45526472  0.87315394  0.01953886     0.02500
C592        C  0.49929316  0.90575062  0.02003911    -0.04300
C593        C  0.54060619  0.89285796  0.03123234    -0.00500
C594        C  0.53815307  0.84775914  0.04160082    -0.03100
C595        C  0.40915321  0.79290573  0.02848848     0.36200
C596        C  0.58511213  0.92693859  0.03256034     0.39800
C597        C  0.40973140  0.88890973  0.01007254     0.38900
C598        C  0.58005243  0.83573797  0.05342603     0.35800
C599        C  0.55005987  0.71893714  0.03581904     0.36500
C600        C  0.42809096  0.74806383  0.09805618     0.39800
N601        N  0.37240924  0.90106602  0.00297297    -0.38300
N602        N  0.37376692  0.76550929  0.02764492    -0.39900
N603        N  0.62056699  0.95415509  0.03366867    -0.37600
N604        N  0.61339323  0.82583237  0.06284437    -0.40000
N605        N  0.40034553  0.85901544  0.07236604    -0.39800
N606        N  0.40405076  0.75496335  0.11072902    -0.37400
N607        N  0.57361532  0.60403675  0.06074515    -0.38500
N608        N  0.57461807  0.71351765  0.02317886    -0.40100
C609        C  0.55889517  0.16301597  0.96406289    -0.05100
C610        C  0.51256589  0.18821621  0.95976203     0.09100
C611        C  0.46521252  0.16942684  0.96650610    -0.02500
C612        C  0.46398321  0.12471622  0.97708825    -0.00700
C613        C  0.51033533  0.09937647  0.98143215    -0.04300
C614        C  0.55769755  0.11801311  0.97451279     0.02700
C615        C  0.51277705  0.22986123  0.94615322     0.09500
C616        C  0.41751041  0.19501161  0.96190362     0.35400
C617        C  0.60463092  0.08867125  0.97693835     0.38800
C618        C  0.50884607  0.21612135  0.92824903    -0.04700
C619        C  0.50790949  0.25481357  0.91525000     0.02500
C620        C  0.51026075  0.30748790  0.92009776    -0.04300
C621        C  0.51487144  0.32130992  0.93796452    -0.00500
C622        C  0.51619168  0.28249193  0.95098938    -0.03100
C623        C  0.50547200  0.16198277  0.92326083     0.36200
C624        C  0.51844119  0.37542186  0.94289772     0.39800
C625        C  0.50497254  0.24041297  0.89684499     0.38900
C626        C  0.52126188  0.29650670  0.96933783     0.35800
C627        C  0.60762161  0.18260322  0.95722638     0.36500
C628        C  0.41464015  0.10193470  0.98191052     0.39800
N629        N  0.50282384  0.22888549  0.88216569    -0.38300
N630        N  0.50272206  0.11873499  0.91938462    -0.39900
N631        N  0.52142808  0.41862656  0.94681138    -0.37600
N632        N  0.52556486  0.30769311  0.98398245    -0.40000
N633        N  0.37950405  0.21548563  0.95821950    -0.39800
N634        N  0.37486486  0.08369357  0.98523383    -0.37400
N635        N  0.64202734  0.06491481  0.97855269    -0.38500
N636        N  0.64648006  0.19842043  0.95181303    -0.40100
C637        C  0.53369043  0.78612567  0.92879126    -0.05100
C638        C  0.50617471  0.77822601  0.94462940     0.09100
C639        C  0.47870651  0.73162813  0.94736586    -0.02500
C640        C  0.47748745  0.69354647  0.93403338    -0.00700
C641        C  0.50479541  0.70163066  0.91809244    -0.04300
C642        C  0.53369711  0.74768973  0.91567788     0.02700
C643        C  0.50420873  0.82065943  0.95794321     0.09500
C644        C  0.45173799  0.72321079  0.96390671     0.35400
C645        C  0.56202494  0.75662934  0.89941315     0.38800
C646        C  0.46237956  0.85528638  0.95797204    -0.04700
C647        C  0.46299952  0.89906052  0.96899760     0.02500
C648        C  0.50523986  0.90812033  0.98029250    -0.04300
C649        C  0.54764231  0.87398095  0.97993512    -0.00500
C650        C  0.54658770  0.82974518  0.96906335    -0.03100
C651        C  0.41958845  0.84683892  0.94610407     0.36200
C652        C  0.59441191  0.88682634  0.98933233     0.39800
C653        C  0.42113646  0.93605404  0.96809384     0.38900
C654        C  0.58992072  0.79442843  0.96879537     0.35800
C655        C  0.56080177  0.83466597  0.92579867     0.36500
C656        C  0.44917815  0.64567482  0.93689992     0.39800
N657        N  0.38792386  0.96569965  0.96728407    -0.38300
N658        N  0.38555401  0.84006930  0.93660656    -0.39900
N659        N  0.63256913  0.89696384  0.99637443    -0.37600
N660        N  0.62447807  0.76624103  0.96854363    -0.40000
N661        N  0.43044160  0.71678285  0.97716236    -0.39800
N662        N  0.42659490  0.60750145  0.93924370    -0.37400
N663        N  0.58476556  0.76363138  0.88646998    -0.38500
N664        N  0.58220881  0.87347284  0.92341587    -0.40100
C665        C  0.95744507  0.28042511  0.69977168    -0.05100
C666        C  0.00451850  0.29585717  0.70738348     0.09100
C667        C  0.04858871  0.26475393  0.70517691    -0.02500
C668        C  0.04579667  0.21835413  0.69542940    -0.00700
C669        C  0.99859633  0.20263425  0.68754331    -0.04300
C670        C  0.95412332  0.23386758  0.69014414     0.02700
C671        C  0.00772594  0.34504868  0.71780878     0.09500
C672        C  0.09733258  0.28124662  0.71270418     0.35400
C673        C  0.90461788  0.21964159  0.68267827     0.38800
C674        C  0.01093437  0.34337700  0.73614164    -0.04700
C675        C  0.01014710  0.38951528  0.74620271     0.02500
C676        C  0.00684203  0.43997361  0.73800656    -0.04300
C677        C  0.01106670  0.43968941  0.71897450    -0.00500
C678        C  0.00856778  0.39291708  0.70927554    -0.03100
C679        C  0.01187341  0.29317409  0.74477198     0.36200
C680        C  0.02361480  0.48478959  0.70848217     0.39800
C681        C  0.00730631  0.38221147  0.76507270     0.38900
C682        C  0.00833807  0.39368313  0.69013807     0.35800
C683        C  0.91241040  0.31336639  0.70125595     0.36500
C684        C  0.09207364  0.18724553  0.69373025     0.39800
N685        N  0.00484884  0.37158650  0.77982226    -0.38300
N686        N  0.01271285  0.25319023  0.75157873    -0.39900
N687        N  0.03462433  0.51881402  0.69930105    -0.37600
N688        N  0.00792167  0.39419557  0.67493309    -0.40000
N689        N  0.13610364  0.29438900  0.71874927    -0.39800
N690        N  0.12934025  0.16300769  0.69235794    -0.37400
N691        N  0.86487978  0.20872044  0.67685003    -0.38500
N692        N  0.87610947  0.33921685  0.70191199    -0.40100
C693        C  0.04360055  0.62758974  0.72894092    -0.05100
C694        C  0.00259426  0.63679477  0.71759785     0.09100
C695        C  0.96082490  0.60232677  0.71729160    -0.02500
C696        C  0.96126008  0.55642480  0.72742426    -0.00700
C697        C  0.00401691  0.54379621  0.73880815    -0.04300
C698        C  0.04376571  0.58352352  0.73999202     0.02700
C699        C  0.00290584  0.68410686  0.70622009     0.09500
C700        C  0.91755221  0.61365114  0.70588556     0.35400
C701        C  0.08313523  0.58535197  0.75333505     0.38800
C702        C  0.03351057  0.68569543  0.69079177    -0.04700
C703        C  0.03401634  0.73028480  0.68013972     0.02500
C704        C  0.00353109  0.77357879  0.68478162    -0.04300
C705        C  0.97308549  0.77195085  0.70027819    -0.00500
C706        C  0.97335761  0.72765129  0.71107198    -0.03100
C707        C  0.06471044  0.64145281  0.68585225     0.36200
C708        C  0.94230313  0.81635054  0.70536025     0.39800
C709        C  0.06458961  0.73052421  0.66407074     0.38900
C710        C  0.94395296  0.72706756  0.72737891     0.35800
C711        C  0.08521895  0.66569356  0.72972210     0.36500
C712        C  0.91855653  0.52111839  0.72432067     0.39800
N713        N  0.08917440  0.73036674  0.65130120    -0.38300
N714        N  0.09014140  0.60669921  0.68176683    -0.39900
N715        N  0.91770300  0.85179952  0.70935092    -0.37600
N716        N  0.92069118  0.72651282  0.74042888    -0.40000
N717        N  0.88310320  0.62286597  0.69685342    -0.39800
N718        N  0.88336925  0.49564669  0.72064496    -0.37400
N719        N  0.11526655  0.59066370  0.76365445    -0.38500
N720        N  0.11816358  0.69605380  0.73034149    -0.40100
C721        C  0.14583173  0.47596819  0.76710345    -0.05100
C722        C  0.14090503  0.48126277  0.78535175     0.09100
C723        C  0.09154632  0.48391237  0.79289851    -0.02500
C724        C  0.04675189  0.48418008  0.78228967    -0.00700
C725        C  0.05042209  0.48574717  0.76324111    -0.04300
C726        C  0.10191881  0.47793051  0.75614249     0.02700
C727        C  0.18822949  0.48423264  0.79666410     0.09500
C728        C  0.08706708  0.48463587  0.81198202     0.35400
C729        C  0.11280391  0.47700400  0.73741728     0.38800
C730        C  0.20455621  0.53213194  0.80361270    -0.04700
C731        C  0.25055826  0.53586399  0.81338655     0.02500
C732        C  0.28068303  0.49108225  0.81678296    -0.04300
C733        C  0.26308195  0.44264110  0.81001605    -0.00500
C734        C  0.21713425  0.43946347  0.80014953    -0.03100
C735        C  0.17307652  0.57780557  0.80116889     0.36200
C736        C  0.29168825  0.39537658  0.81297027     0.39800
C737        C  0.26545797  0.58634886  0.82009211     0.38900
C738        C  0.19872536  0.38967677  0.79382486     0.35800
C739        C  0.19729962  0.47131545  0.75946788     0.36500
C740        C  0.99885667  0.47718719  0.79197862     0.39800
N741        N  0.27674796  0.62690989  0.82533042    -0.38300
N742        N  0.14807076  0.61447344  0.79967395    -0.39900
N743        N  0.31390113  0.35729812  0.81531353    -0.37600
N744        N  0.18388818  0.35003010  0.78881363    -0.40000
N745        N  0.08353305  0.48512491  0.82715180    -0.39800
N746        N  0.96239845  0.47056942  0.80059907    -0.37400
N747        N  0.12597443  0.47634971  0.72284920    -0.38500
N748        N  0.23828216  0.46761801  0.75343743    -0.40100
C749        C  0.88801495  0.54505715  0.77986581    -0.05100
C750        C  0.85031771  0.50611561  0.77902623     0.09100
C751        C  0.85806556  0.46395720  0.76779567    -0.02500
C752        C  0.90502259  0.45789686  0.75836368    -0.00700
C753        C  0.94733142  0.49468339  0.76012559    -0.04300
C754        C  0.93539843  0.54017446  0.77054199     0.02700
C755        C  0.80324253  0.50728021  0.79071830     0.09500
C756        C  0.81605512  0.42662278  0.76574509     0.35400
C757        C  0.97288929  0.58105884  0.77358807     0.38800
C758        C  0.76294392  0.54272785  0.78775523    -0.04700
C759        C  0.71822996  0.54198668  0.79854400     0.02500
C760        C  0.71247995  0.50427742  0.81193705    -0.04300
C761        C  0.75279907  0.46845208  0.81470142    -0.00500
C762        C  0.79799599  0.47042401  0.80431003    -0.03100
C763        C  0.76698202  0.57919668  0.77333314     0.36200
C764        C  0.74911356  0.43020151  0.82861083     0.39800
C765        C  0.67784291  0.57960160  0.79557236     0.38900
C766        C  0.83901438  0.43362318  0.80750298     0.35800
C767        C  0.87873397  0.58973613  0.79108284     0.36500
C768        C  0.90415377  0.41520685  0.74606210     0.39800
N769        N  0.64585179  0.60987519  0.79326233    -0.38300
N770        N  0.77022817  0.60835064  0.76184820    -0.39900
N771        N  0.74642402  0.39945684  0.83962245    -0.37600
N772        N  0.87105749  0.40360436  0.81004912    -0.40000
N773        N  0.78274630  0.39699172  0.76416536    -0.39800
N774        N  0.89916974  0.38062436  0.73654691    -0.37400
N775        N  0.00019765  0.61505801  0.77709575    -0.38500
N776        N  0.87122982  0.62547297  0.79991411    -0.40100
C777        C  0.59236091  0.00233241  0.71055977    -0.05100
C778        C  0.63868741  0.99318451  0.71943492     0.09100
C779        C  0.63694993  0.98478196  0.73758884    -0.02500
C780        C  0.59012386  0.99026082  0.74716146    -0.00700
C781        C  0.54111405  0.99844691  0.73849088    -0.04300
C782        C  0.54408109  0.00028607  0.71951321     0.02700
C783        C  0.68911519  0.98982705  0.70942284     0.09500
C784        C  0.68437318  0.97135512  0.74656837     0.35400
C785        C  0.49997621  0.99514902  0.70816066     0.38800
C786        C  0.72765790  0.02836842  0.71128117    -0.04700
C787        C  0.77402252  0.02566303  0.70136871     0.02500
C788        C  0.78200206  0.98503526  0.68910614    -0.04300
C789        C  0.74370207  0.94579685  0.68760494    -0.00500
C790        C  0.69815148  0.94781965  0.69793040    -0.03100
C791        C  0.71980635  0.07108201  0.72339306     0.36200
C792        C  0.74936070  0.90434071  0.67486242     0.39800
C793        C  0.81390916  0.06446751  0.70411735     0.38900
C794        C  0.66010329  0.90653986  0.69669390     0.35800
C795        C  0.59452700  0.01351657  0.69183473     0.36500
C796        C  0.59545639  0.99086758  0.76611002     0.39800
N797        N  0.84570791  0.09537068  0.70635738    -0.38300
N798        N  0.71446383  0.10515671  0.73312114    -0.39900
N799        N  0.75346163  0.87124904  0.66467983    -0.37600
N800        N  0.62956697  0.87382115  0.69575039    -0.40000
N801        N  0.72215906  0.96071785  0.75367921    -0.39800
N802        N  0.60436712  0.99113673  0.78098551    -0.37400
N803        N  0.46711204  0.98978399  0.69811435    -0.38500
N804        N  0.59627178  0.02256464  0.67695386    -0.40100
C805        C  0.35374817  0.96430495  0.72850113    -0.05100
C806        C  0.34551233  0.00523264  0.71693986     0.09100
C807        C  0.37865864  0.04821191  0.71739151    -0.02500
C808        C  0.42329671  0.04830222  0.72813272    -0.00700
C809        C  0.43609258  0.00450144  0.73904892    -0.04300
C810        C  0.39560021  0.96537844  0.74030888     0.02700
C811        C  0.29920311  0.00405844  0.70519843     0.09500
C812        C  0.36718963  0.09224739  0.70627342     0.35400
C813        C  0.38930465  0.93024321  0.75501104     0.38800
C814        C  0.25184337  0.02497939  0.71110474    -0.04700
C815        C  0.20715434  0.02018790  0.70071213     0.02500
C816        C  0.20958655  0.99471037  0.68429737    -0.04300
C817        C  0.25686407  0.97351080  0.67843715    -0.00500
C818        C  0.30143304  0.97805298  0.68886974    -0.03100
C819        C  0.24902311  0.05057024  0.72806166     0.36200
C820        C  0.26008620  0.94804395  0.66144346     0.39800
C821        C  0.15810462  0.03942323  0.70724751     0.38900
C822        C  0.34943712  0.95539503  0.68279135     0.35800
C823        C  0.31636130  0.92197146  0.72896730     0.36500
C824        C  0.45636452  0.09349500  0.72661283     0.39800
N825        N  0.11881801  0.05425957  0.71250635    -0.38300
N826        N  0.24690972  0.07096457  0.74160043    -0.39900
N827        N  0.26266311  0.92773723  0.64789526    -0.37600
N828        N  0.38712838  0.93672220  0.67762355    -0.40000
N829        N  0.35788838  0.12731838  0.69744172    -0.39800
N830        N  0.47993857  0.13112237  0.72440539    -0.37400
N831        N  0.38122347  0.90278621  0.76671645    -0.38500
N832        N  0.28640644  0.88859763  0.72938414    -0.40100
C833        C  0.46144338  0.24191577  0.78981773    -0.05100
C834        C  0.48962307  0.19711658  0.79411909     0.09100
C835        C  0.52164930  0.19751470  0.80903844    -0.02500
C836        C  0.52496670  0.24205666  0.81972502    -0.00700
C837        C  0.49667487  0.28689539  0.81546797    -0.04300
C838        C  0.46504081  0.28668554  0.80043035     0.02700
C839        C  0.48812827  0.15034222  0.78236691     0.09500
C840        C  0.55160827  0.15206701  0.81332951     0.35400
C841        C  0.43784011  0.33326329  0.79546054     0.38800
C842        C  0.52902154  0.14095393  0.77073210    -0.04700
C843        C  0.52901114  0.09682534  0.75966434     0.02500
C844        C  0.48908204  0.05715598  0.76106207    -0.04300
C845        C  0.44523309  0.07137127  0.77194089    -0.00500
C846        C  0.44564180  0.11667021  0.78253376    -0.03100
C847        C  0.57055840  0.17910677  0.76957747     0.36200
C848        C  0.39950958  0.03921836  0.77367355     0.39800
C849        C  0.56702785  0.09943017  0.74558794     0.38900
C850        C  0.40262189  0.12800739  0.79431092     0.35800
C851        C  0.42945050  0.24213084  0.77427203     0.36500
C852        C  0.55631570  0.24095258  0.83542943     0.39800
N853        N  0.59721649  0.10495024  0.73443855    -0.38300
N854        N  0.60333967  0.20960449  0.76863330    -0.39900
N855        N  0.36116098  0.01719968  0.77621528    -0.37600
N856        N  0.36845650  0.13709804  0.80369780    -0.40000
N857        N  0.57595892  0.11611431  0.81674288    -0.39800
N858        N  0.58130268  0.23995286  0.84795630    -0.37400
N859        N  0.41651594  0.37057778  0.79142609    -0.38500
N860        N  0.40382903  0.24213424  0.76188984    -0.40100
C861        C  0.49740955  0.85563958  0.76293556    -0.05100
C862        C  0.49128979  0.85574495  0.78119867     0.09100
C863        C  0.48708571  0.90303001  0.79014867    -0.02500
C864        C  0.49019881  0.95073275  0.78099531    -0.00700
C865        C  0.49119621  0.95223194  0.76197138    -0.04300
C866        C  0.49592235  0.90235958  0.75333322     0.02700
C867        C  0.49351062  0.80584007  0.79121054     0.09500
C868        C  0.48062656  0.90228381  0.80916569     0.35400
C869        C  0.49490563  0.89654576  0.73436974     0.38800
C870        C  0.53943759  0.79213678  0.79975918    -0.04700
C871        C  0.54213351  0.74579875  0.80946582     0.02500
C872        C  0.49819838  0.71265632  0.81094522    -0.04300
C873        C  0.45330906  0.72511191  0.80132190    -0.00500
C874        C  0.45086073  0.77165725  0.79168653    -0.03100
C875        C  0.58412608  0.82621288  0.79856330     0.36200
C876        C  0.40998374  0.68930898  0.80067337     0.39800
C877        C  0.59055593  0.73327743  0.81786556     0.38900
C878        C  0.40420858  0.78405390  0.78222551     0.35800
C879        C  0.50420170  0.80641463  0.75391174     0.36500
C880        C  0.49764059  0.99564247  0.79210588     0.39800
N881        N  0.62955053  0.72356755  0.82436642    -0.38300
N882        N  0.61952713  0.85360644  0.79761181    -0.39900
N883        N  0.37548855  0.66073639  0.80000911    -0.37600
N884        N  0.36655699  0.79259858  0.77472277    -0.40000
N885        N  0.47547539  0.90163002  0.82428566    -0.39800
N886        N  0.50490542  0.02925986  0.80187282    -0.37400
N887        N  0.49353862  0.88779421  0.71946115    -0.38500
N888        N  0.50948593  0.76715469  0.74679526    -0.40100
C889        C  0.14304304  0.55267950  0.04408705    -0.05100
C890        C  0.17599387  0.50943218  0.04452453     0.09100
C891        C  0.16670697  0.46712294  0.03319250    -0.02500
C892        C  0.12404358  0.46756033  0.02176577    -0.00700
C893        C  0.09142611  0.51118236  0.02113124    -0.04300
C894        C  0.10073073  0.55340543  0.03257881     0.02700
C895        C  0.21759846  0.50680659  0.05806322     0.09500
C896        C  0.20032069  0.42245965  0.03368393     0.35400
C897        C  0.06551460  0.59690704  0.03303502     0.38800
C898        C  0.20946053  0.47753660  0.07349086    -0.04700
C899        C  0.24699907  0.47724006  0.08680791     0.02500
C900        C  0.29318610  0.50614635  0.08479879    -0.04300
C901        C  0.30104739  0.53595161  0.06941955    -0.00500
C902        C  0.26357816  0.53582591  0.05602753    -0.03100
C903        C  0.16175108  0.44853909  0.07580076     0.36200
C904        C  0.34785830  0.56644069  0.06726284     0.39800
C905        C  0.23655780  0.44957350  0.10303735     0.38900
C906        C  0.27214461  0.56554475  0.04010815     0.35800
C907        C  0.15184831  0.59588302  0.05591268     0.36500
C908        C  0.11132282  0.42127747  0.01189285     0.39800
N909        N  0.22799497  0.42786531  0.11603441    -0.38300
N910        N  0.12371165  0.42535861  0.07755618    -0.39900
N911        N  0.38506136  0.59099977  0.06556311    -0.37600
N912        N  0.27874443  0.58920715  0.02738350    -0.40000
N913        N  0.22703579  0.38674901  0.03410465    -0.39800
N914        N  0.10132441  0.38358460  0.00439660    -0.37400
N915        N  0.03717928  0.63136813  0.03344451    -0.38500
N916        N  0.15901693  0.63035973  0.06532518    -0.40100
C917        C  0.82163042  0.54316945  0.03019432    -0.05100
C918        C  0.81241179  0.49815894  0.04018889     0.09100
C919        C  0.84627284  0.45588719  0.03883007    -0.02500
C920        C  0.89045733  0.45933359  0.02801758    -0.00700
C921        C  0.90081402  0.50511288  0.01836467    -0.04300
C922        C  0.86643232  0.54724139  0.01966103     0.02700
C923        C  0.77140454  0.49814802  0.05402169     0.09500
C924        C  0.83664863  0.40964051  0.04915922     0.35400
C925        C  0.87944728  0.59655938  0.01170889     0.38800
C926        C  0.72374235  0.47304393  0.05120060    -0.04700
C927        C  0.68584054  0.47255473  0.06460746     0.02500
C928        C  0.69508136  0.49856442  0.08062636    -0.04300
C929        C  0.74322058  0.52286823  0.08352877    -0.00500
C930        C  0.78140488  0.52232197  0.07028944    -0.03100
C931        C  0.71387849  0.44790327  0.03450294     0.36200
C932        C  0.75451747  0.54620925  0.10044532     0.39800
C933        C  0.63727482  0.44561842  0.06188951     0.38900
C934        C  0.83156026  0.54571469  0.07348072     0.35800
C935        C  0.78584865  0.58606714  0.03135185     0.36500
C936        C  0.92647750  0.41648099  0.02746658     0.39800
N937        N  0.59865199  0.42382545  0.05981130    -0.38300
N938        N  0.70610772  0.42789296  0.02115870    -0.39900
N939        N  0.76372183  0.56454700  0.11395755    -0.37600
N940        N  0.87167785  0.56412226  0.07595582    -0.40000
N941        N  0.82887344  0.37278993  0.05740040    -0.39800
N942        N  0.95531884  0.38244329  0.02705193    -0.37400
N943        N  0.88945790  0.63661781  0.00579582    -0.38500
N944        N  0.75716591  0.62015866  0.03226715    -0.40100
C945        C  0.17627186  0.55493608  0.97123793    -0.05100
C946        C  0.18634685  0.51276124  0.95998324     0.09100
C947        C  0.15195882  0.47040389  0.95943263    -0.02500
C948        C  0.10705109  0.47049857  0.96991443    -0.00700
C949        C  0.09658798  0.51282813  0.98121494    -0.04300
C950        C  0.13083308  0.55557607  0.98153684    -0.05700
C951        C  0.22947216  0.51543169  0.94698406     0.09500
C952        C  0.16188747  0.42764878  0.94748684     0.35400
C953        C  0.11705268  0.60236586  0.99094751     0.38800
C954        C  0.27548953  0.48799596  0.94984809    -0.04700
C955        C  0.31364521  0.48591289  0.93656162     0.02500
C956        C  0.30575761  0.51140372  0.92042309    -0.04300
C957        C  0.25986915  0.53955455  0.91770952    -0.00500
C958        C  0.22200052  0.54179762  0.93101904    -0.03100
C959        C  0.28306995  0.46151329  0.96639963     0.36200
C960        C  0.25005993  0.56375529  0.90086905     0.39800
C961        C  0.36117104  0.45805410  0.93957030     0.38900
C962        C  0.17451944  0.57003747  0.92813562     0.35800
C963        C  0.21180160  0.59850247  0.97165847     0.36500
C964        C  0.07030302  0.42812754  0.96835050     0.39800
N965        N  0.39908886  0.43579179  0.94195725    -0.38300
N966        N  0.28893229  0.44040718  0.97962310    -0.39900
N967        N  0.24203410  0.58279815  0.88742151    -0.37600
N968        N  0.13668571  0.59261395  0.92590706    -0.40000
N969        N  0.16997204  0.39370432  0.93792684    -0.39800
N970        N  0.04076423  0.39463292  0.96696890    -0.37400
N971        N  0.10642947  0.64060452  0.99800187    -0.38500
N972        N  0.24016977  0.63323309  0.97198693    -0.40100
C973        C  0.85724525  0.56606400  0.95641021    -0.05100
C974        C  0.82243942  0.52420341  0.95508747     0.09100
C975        C  0.82891336  0.48014638  0.96570791    -0.02500
C976        C  0.87181294  0.47652160  0.97686437    -0.00700
C977        C  0.90621145  0.51884989  0.97860713    -0.04300
C978        C  0.89863932  0.56373547  0.96826822     0.02700
C979        C  0.78202336  0.52382675  0.94123778     0.09500
C980        C  0.79202099  0.43777997  0.96468994     0.35400
C981        C  0.93448066  0.60698929  0.96935424     0.38800
C982        C  0.78985934  0.49420986  0.92585280    -0.04700
C983        C  0.75072072  0.49049009  0.91321270     0.02500
C984        C  0.70374067  0.51704123  0.91577118    -0.04300
C985        C  0.69686975  0.54876786  0.93076892    -0.00500
C986        C  0.73583544  0.55173452  0.94357027    -0.03100
C987        C  0.83868354  0.46812137  0.92294657     0.36200
C988        C  0.64942379  0.57762492  0.93320969     0.39800
C989        C  0.75982100  0.46115970  0.89719960     0.38900
C990        C  0.72848771  0.58322162  0.95918506     0.35800
C991        C  0.85140328  0.61075283  0.94510554     0.36500
C992        C  0.88304040  0.42724196  0.98496219     0.39800
N993        N  0.76708769  0.43799287  0.88439005    -0.38300
N994        N  0.87769255  0.44747523  0.92063681    -0.39900
N995        N  0.61170127  0.60084622  0.93513056    -0.37600
N996        N  0.72289030  0.60849246  0.97162345    -0.40000
N997        N  0.76238821  0.40420885  0.96386416    -0.39800
N998        N  0.89140328  0.38692148  0.99082803    -0.37400
N999        N  0.96317537  0.64137498  0.97019211    -0.38500
N1000       N  0.84673273  0.64631560  0.93605336    -0.40100
C1001       C  0.71393654  0.95218995  0.30294210    -0.05100
C1002       C  0.70179076  0.99674343  0.29320723     0.09100
C1003       C  0.73517888  0.04004116  0.29375537    -0.02500
C1004       C  0.77937946  0.03959684  0.30448699    -0.00700
C1005       C  0.79044528  0.99589915  0.31504801    -0.04300
C1006       C  0.75729886  0.95187522  0.31403199     0.02700
C1007       C  0.65277992  0.99820960  0.28280697     0.09500
C1008       C  0.72449887  0.08525718  0.28316660     0.35400
C1009       C  0.76583809  0.90647406  0.32479973     0.38800
C1010       C  0.60495380  0.00167188  0.29148900    -0.04700
C1011       C  0.55808462  0.99976289  0.28202519     0.02500
C1012       C  0.55792675  0.00078892  0.26299731    -0.04300
C1013       C  0.60822238  0.99673537  0.25461752    -0.00500
C1014       C  0.65415643  0.99386204  0.26448753    -0.03100
C1015       C  0.60418980  0.00618201  0.31056870     0.36200
C1016       C  0.61523139  0.99960610  0.23571146     0.39800
C1017       C  0.51254166  0.99149018  0.29282593     0.38900
C1018       C  0.70380946  0.98750768  0.25569872     0.35800
C1019       C  0.68140681  0.90642383  0.30152148     0.36500
C1020       C  0.81358583  0.08429416  0.30431796     0.39800
N1021       N  0.47844191  0.98348896  0.30238654    -0.38300
N1022       N  0.60362039  0.00958873  0.32573558    -0.39900
N1023       N  0.62487446  0.00230109  0.22086524    -0.37600
N1024       N  0.74339031  0.98260071  0.24874312    -0.40000
N1025       N  0.71737890  0.12160746  0.27469556    -0.39800
N1026       N  0.84061875  0.12010980  0.30413362    -0.37400
N1027       N  0.77219944  0.87011532  0.33335504    -0.38500
N1028       N  0.65546208  0.87000313  0.30034253    -0.40100
C1029       C  0.26889627  0.02565871  0.28883228    -0.05100
C1030       C  0.31316080  0.99899288  0.29448029     0.09100
C1031       C  0.31101327  0.96993208  0.31013272    -0.02500
C1032       C  0.26484348  0.96743031  0.32006028    -0.00700
C1033       C  0.22060959  0.99462692  0.31455485    -0.04300
C1034       C  0.22302988  0.02400122  0.29895067     0.02700
C1035       C  0.36158548  0.00031626  0.28356118     0.09500
C1036       C  0.35639994  0.94259260  0.31605178     0.35400
C1037       C  0.17788752  0.05142122  0.29300515     0.38800
C1038       C  0.39297070  0.04455842  0.28326699    -0.04700
C1039       C  0.43839409  0.04633004  0.27274403     0.02500
C1040       C  0.45387143  0.00290562  0.26186931    -0.04300
C1041       C  0.41592287  0.96154457  0.26075714    -0.00500
C1042       C  0.37357912  0.95868243  0.27254930    -0.03100
C1043       C  0.37926513  0.08792472  0.29457769     0.36200
C1044       C  0.41193782  0.92642827  0.24596117     0.39800
C1045       C  0.46864064  0.09338911  0.27428871     0.38900
C1046       C  0.34003729  0.91328131  0.27272497     0.35800
C1047       C  0.27047850  0.05423061  0.27243944     0.36500
C1048       C  0.26354947  0.93790581  0.33621662     0.39800
N1049       N  0.48879495  0.13290663  0.27652790    -0.38300
N1050       N  0.36830385  0.12232967  0.30360027    -0.39900
N1051       N  0.40537194  0.89921480  0.23408886    -0.37600
N1052       N  0.31354161  0.87708426  0.27295146    -0.40000
N1053       N  0.39231492  0.92046873  0.32085883    -0.39800
N1054       N  0.26262404  0.91401471  0.34904473    -0.37400
N1055       N  0.14195222  0.07334475  0.28816445    -0.38500
N1056       N  0.27193814  0.07695176  0.25935531    -0.40100
C1057       C  0.47187782  0.24069996  0.21254232    -0.05100
C1058       C  0.50396255  0.19861483  0.20813511     0.09100
C1059       C  0.53617687  0.20153824  0.19313825    -0.02500
C1060       C  0.53541900  0.24580173  0.18233745    -0.00700
C1061       C  0.50205606  0.28752651  0.18642045    -0.04300
C1062       C  0.47020702  0.28455168  0.20156315     0.02700
C1063       C  0.50413019  0.15117663  0.21942794     0.09500
C1064       C  0.57028599  0.15889068  0.18885384     0.35400
C1065       C  0.43628158  0.32694849  0.20609317     0.38800
C1066       C  0.46295446  0.11592974  0.21887699    -0.04700
C1067       C  0.46297149  0.07076748  0.22940433     0.02500
C1068       C  0.50637625  0.05795868  0.24036422    -0.04300
C1069       C  0.54444452  0.09916700  0.24224951    -0.00500
C1070       C  0.54413513  0.14331071  0.23128951    -0.03100
C1071       C  0.42089933  0.12558323  0.20679318     0.36200
C1072       C  0.57927944  0.10364035  0.25699886     0.39800
C1073       C  0.41788792  0.03770903  0.22782630     0.38900
C1074       C  0.58386986  0.18312497  0.23292982     0.35800
C1075       C  0.44144538  0.23917961  0.22863447     0.36500
C1076       C  0.56767647  0.24714292  0.16665291     0.39800
N1077       N  0.37997397  0.01476924  0.22567013    -0.38300
N1078       N  0.38760862  0.13340896  0.19712852    -0.39900
N1079       N  0.60617915  0.11029175  0.26885985    -0.37600
N1080       N  0.61523277  0.21491019  0.23430171    -0.40000
N1081       N  0.59781278  0.12511200  0.18547715    -0.39800
N1082       N  0.59348985  0.24807283  0.15416515    -0.37400
N1083       N  0.40885261  0.36053712  0.20970818    -0.38500
N1084       N  0.41748912  0.23789167  0.24153468    -0.40100
C1085       C  0.47491481  0.77149638  0.21058310    -0.05100
C1086       C  0.51527749  0.80802242  0.20831909     0.09100
C1087       C  0.55577030  0.79695963  0.19640893    -0.02500
C1088       C  0.55423619  0.75175304  0.18594484    -0.00700
C1089       C  0.51229974  0.71623130  0.18750578    -0.04300
C1090       C  0.47369432  0.72572192  0.20038065     0.02700
C1091       C  0.51579544  0.85790655  0.21862601     0.09500
C1092       C  0.59949683  0.83217319  0.19506062     0.35400
C1093       C  0.43357462  0.68746250  0.20371946     0.38800
C1094       C  0.52637949  0.85769728  0.23661249    -0.04700
C1095       C  0.52114778  0.90335629  0.24675836     0.02500
C1096       C  0.51291648  0.95344923  0.23870080    -0.04300
C1097       C  0.51135083  0.95281167  0.21968381    -0.00500
C1098       C  0.50755915  0.90548076  0.21026109    -0.03100
C1099       C  0.54227107  0.80958875  0.24477913     0.36200
C1100       C  0.51883149  0.99809390  0.20878513     0.39800
C1101       C  0.52039218  0.89564333  0.26562269     0.38900
C1102       C  0.49562040  0.90563933  0.19162003     0.35800
C1103       C  0.43465918  0.78036995  0.22357928     0.36500
C1104       C  0.59570285  0.74310867  0.17335224     0.39800
N1105       N  0.51969430  0.88519306  0.28040232    -0.38300
N1106       N  0.55541434  0.77135614  0.25119354    -0.39900
N1107       N  0.52613099  0.03209869  0.19918172    -0.37600
N1108       N  0.48591246  0.90569971  0.17680426    -0.40000
N1109       N  0.63431760  0.86028499  0.19403751    -0.39800
N1110       N  0.62906655  0.73644558  0.16339893    -0.37400
N1111       N  0.40176369  0.65686594  0.20650710    -0.38500
N1112       N  0.40239930  0.78603584  0.23400842    -0.40100
loop_ 
_geom_bond_atom_site_label_1 
_geom_bond_atom_site_label_2 
_geom_bond_distance 
_geom_bond_site_symmetry_2 
_ccdc_geom_bond_type 
C1         C1012   1.605       .  S
C1         C1040   1.611       .  S
C1         C1068   1.612       .  S
C1         C1096   1.611   1_545  S
C2            C3   1.416   1_554  A
C2            C7   1.403       .  A
C2          C921   1.488       .  S
C3            C4   1.400   1_655  A
C3          C977   1.494       .  S
C4            C5   1.401       .  A
C4            H9   1.085       .  S
C5            C6   1.414   1_556  A
C5          C949   1.486       .  S
C6            C7   1.400   1_455  A
C6          C893   1.494       .  S
C7            H8   1.085       .  S
C10         C781   1.612   1_545  S
C10         C809   1.618       .  S
C10         C844   1.615       .  S
C10         C865   1.606   1_545  S
C11         C676   1.609       .  S
C11         C697   1.613       .  S
C11         C725   1.613       .  S
C11         C753   1.613   1_455  S
C12          C13   1.417   1_554  A
C12          C17   1.405   1_565  A
C12         C592   1.496       .  S
C13          C14   1.403   1_565  A
C13         C648   1.489       .  S
C14          C15   1.398       .  A
C14          H19   1.085       .  S
C15          C16   1.412   1_556  A
C15         C613   1.490       .  S
C16          C17   1.404       .  A
C16         C557   1.489       .  S
C17          H18   1.084       .  S
N20          N21   1.322       .  A
N20          N26   1.314       .  A
N20         Mn49   2.204       .  S
N21          C28   1.354       .  A
N22          N24   1.314       .  A
N22          N23   1.317       .  A
N22         Mn38   2.189       .  S
N23          C29   1.351       .  A
N24          N25   1.322       .  A
N24         Mn49   2.210       .  S
N25          C29   1.358       .  A
N26          N27   1.318       .  A
N26         Mn38   2.189       .  S
N27          C28   1.351       .  A
C28         C641   1.482       .  S
C29         C872   1.501       .  S
N30          N36   1.316       .  A
N30          N31   1.320       .  A
N30         Mn60   2.211       .  S
N31          C39   1.355       .  A
N32          N33   1.318       .  A
N32          N34   1.314       .  A
N32         Mn38   2.181       .  S
N33          C40   1.349       .  A
N34          N35   1.320       .  A
N34         Mn60   2.205       .  S
N35          C40   1.354       .  A
N36          N37   1.320       .  A
N36         Mn38   2.191       .  S
N37          C39   1.352       .  A
Mn38        Cl62   2.537       .  S
C39         C760   1.492       .  S
C40         C984   1.479       .  S
N41          N42   1.321       .  A
N41          N47   1.316       .  A
N41         Mn49   2.214       .  S
N42          C50   1.357       .  A
N43          N45   1.315       .  A
N43          N44   1.321       .  A
N43         Mn61   2.200       .  S
N44          C51   1.354       .  A
N45          N46   1.317       .  A
N45         Mn49   2.185       .  S
N46          C51   1.349       .  A
N47          N48   1.320       .  A
N47         Mn61   2.206       .  S
N48          C50   1.354       .  A
Mn49        Cl62   2.549       .  S
C50         C732   1.512       .  S
C51         C956   1.476       .  S
N52          N53   1.321       .  A
N52          N58   1.316       .  A
N52         Mn60   2.201       .  S
N53          C63   1.351       .  A
N54          N55   1.320       .  A
N54          N56   1.317       .  A
N54         Mn61   2.204       .  S
N55          C64   1.352       .  A
N56          N57   1.321       .  A
N56         Mn60   2.211       .  S
N57          C64   1.354       .  A
N58          N59   1.321       .  A
N58         Mn61   2.207       .  S
N59          C63   1.353       .  A
Mn60        Cl62   2.548       .  S
Mn61        Cl62   2.542       .  S
C63         C620   1.479       .  S
C64         C837   1.487       .  S
N65          N66   1.323       .  A
N65          N71   1.316       .  A
N65         Mn94   2.221       .  S
N66          C73   1.359       .  A
N67          N69   1.315       .  A
N67          N68   1.323       .  A
N67         Mn83   2.212       .  S
N68          C74   1.356       .  A
N69          N70   1.318       .  A
N69         Mn94   2.192       .  S
N70          C74   1.351       .  A
N71          N72   1.318       .  A
N71         Mn83   2.194       .  S
N72          C73   1.351       .  A
C73        C1089   1.501       .  S
C74         C585   1.487       .  S
N75          N81   1.314       .  A
N75          N76   1.319       .  A
N75        Mn105   2.188       .  S
N76          C84   1.350       .  A
N77          N78   1.320       .  A
N77          N79   1.315       .  A
N77         Mn83   2.209       .  S
N78          C85   1.355       .  A
N79          N80   1.322       .  A
N79        Mn105   2.213       .  S
N80          C85   1.357       .  A
N81          N82   1.319       .  A
N81         Mn83   2.194       .  S
N82          C84   1.352       .  A
Mn83       Cl107   2.544       .  S
C84         C928   1.476       .  S
C85         C536   1.511       .  S
N86          N87   1.322       .  A
N86          N92   1.315       .  A
N86         Mn94   2.204       .  S
N87          C95   1.353       .  A
N88          N90   1.319       .  A
N88          N89   1.321       .  A
N88        Mn106   2.211       .  S
N89          C96   1.352       .  A
N90          N91   1.321       .  A
N90         Mn94   2.210       .  S
N91          C96   1.353       .  A
N92          N93   1.321       .  A
N92        Mn106   2.207       .  S
N93          C95   1.354       .  A
Mn94       Cl107   2.549       .  S
C95         C900   1.489       .  S
C96         C508   1.483       .  S
N97          N98   1.319       .  A
N97         N103   1.317       .  A
N97        Mn105   2.194       .  S
N98         C108   1.351       .  A
N99         N100   1.321       .  A
N99         N101   1.316       .  A
N99        Mn106   2.205       .  S
N100        C109   1.353       .  A
N101        N102   1.319       .  A
N101       Mn105   2.197       .  S
N102        C109   1.350       .  A
N103        N104   1.322       .  A
N103       Mn106   2.215       .  S
N104        C108   1.355       .  A
Mn105      Cl107   2.546       .  S
Mn106      Cl107   2.547       .  S
C108       C1061   1.489       .  S
C109        C564   1.475       .  S
N110        N111   1.320       .  A
N110        N116   1.317   1_545  A
N110       Mn139   2.203       .  S
N111        C118   1.351   1_545  A
N112        N114   1.314   1_565  A
N112        N113   1.321       .  A
N112       Mn128   2.203       .  S
N113        C119   1.353       .  A
N114        N115   1.318       .  A
N114       Mn139   2.184       .  S
N115        C119   1.350   1_545  A
N116        N117   1.322       .  A
N116       Mn128   2.211       .  S
N117        C118   1.355       .  A
C118        C816   1.484       .  S
C119        C396   1.476   1_565  S
N120        N126   1.315   1_655  A
N120        N121   1.320       .  A
N120       Mn150   2.197       .  S
N121        C129   1.351       .  A
N122        N123   1.321       .  A
N122        N124   1.317   1_455  A
N122       Mn128   2.207       .  S
N123        C130   1.353       .  A
N124        N125   1.320       .  A
N124       Mn150   2.200       .  S
N125        C130   1.352   1_655  A
N126        N127   1.318       .  A
N126       Mn128   2.191       .  S
N127        C129   1.351   1_455  A
Mn128      Cl152   2.547   1_455  S
C129        C473   1.473       .  S
C130        C704   1.486       .  S
N131        N132   1.320       .  A
N131        N137   1.314   1_455  A
N131       Mn139   2.193       .  S
N132        C140   1.352   1_455  A
N133        N135   1.314   1_655  A
N133        N134   1.319       .  A
N133       Mn151   2.202       .  S
N134        C141   1.355       .  A
N135        N136   1.317       .  A
N135       Mn139   2.187       .  S
N136        C141   1.352   1_455  A
N137        N138   1.319       .  A
N137       Mn151   2.202       .  S
N138        C140   1.354       .  A
Mn139      Cl152   2.541   1_445  S
C140        C452   1.486       .  S
C141        C669   1.501       .  S
N142        N143   1.322       .  A
N142        N148   1.317   1_565  A
N142       Mn150   2.213       .  S
N143        C153   1.356       .  A
N144        N145   1.320       .  A
N144        N146   1.314   1_545  A
N144       Mn151   2.194       .  S
N145        C154   1.352   1_545  A
N146        N147   1.318       .  A
N146       Mn150   2.186       .  S
N147        C154   1.349       .  A
N148        N149   1.321       .  A
N148       Mn151   2.209       .  S
N149        C153   1.354   1_545  A
Mn150      Cl152   2.542       .  S
Mn151      Cl152   2.542   1_545  S
C153        C788   1.501       .  S
C154        C424   1.472       .  S
N155        N156   1.321       .  A
N155        N161   1.318   1_565  A
N155       Mn184   2.212       .  S
N156        C163   1.354       .  A
N157        N159   1.316   1_545  A
N157        N158   1.320       .  A
N157       Mn173   2.202       .  S
N158        C164   1.352   1_545  A
N159        N160   1.319       .  A
N159       Mn184   2.196       .  S
N160        C164   1.352       .  A
N161        N162   1.321       .  A
N161       Mn173   2.206       .  S
N162        C163   1.352   1_545  A
C163       C1033   1.487       .  S
C164        C333   1.478       .  S
N165        N171   1.314   1_655  A
N165        N166   1.318       .  A
N165       Mn195   2.185       .  S
N166        C174   1.349   1_655  A
N167        N168   1.322       .  A
N167        N169   1.318   1_455  A
N167       Mn173   2.213       .  S
N168        C175   1.353       .  A
N169        N170   1.321       .  A
N169       Mn195   2.208       .  S
N170        C175   1.353   1_655  A
N171        N172   1.320       .  A
N171       Mn173   2.198       .  S
N172        C174   1.353       .  A
Mn173      Cl197   2.539   1_545  S
C174        C277   1.474       .  S
C175        C249   1.484       .  S
N176        N177   1.323       .  A
N176        N182   1.314   1_455  A
N176       Mn184   2.208       .  S
N177        C185   1.355       .  A
N178        N180   1.316   1_655  A
N178        N179   1.316       .  A
N178       Mn196   2.188       .  S
N179        C186   1.350       .  A
N180        N181   1.323       .  A
N180       Mn184   2.217       .  S
N181        C186   1.358   1_455  A
N182        N183   1.317       .  A
N182       Mn196   2.186       .  S
N183        C185   1.349   1_655  A
Mn184      Cl197   2.555       .  S
C185        C305   1.480   1_455  S
C186        C221   1.493       .  S
N187        N188   1.321       .  A
N187        N193   1.314   1_545  A
N187       Mn195   2.204       .  S
N188        C198   1.357   1_545  A
N189        N190   1.321       .  A
N189        N191   1.314   1_565  A
N189       Mn196   2.196       .  S
N190        C199   1.353       .  A
N191        N192   1.318       .  A
N191       Mn195   2.191       .  S
N192        C199   1.351   1_545  A
N193        N194   1.318       .  A
N193       Mn196   2.193       .  S
N194        C198   1.352       .  A
Mn195      Cl197   2.550   1_645  S
Mn196      Cl197   2.532   1_655  S
C198       C1005   1.501       .  S
C199        C368   1.478       .  S
C200        C201   1.414       .  A
C200        C205   1.404       .  A
C200        C480   1.488       .  S
C201        C202   1.398       .  A
C201        C312   1.493       .  S
C202        C203   1.400       .  A
C202        H207   1.081       .  S
C203        C204   1.414       .  A
C203        C284   1.485       .  S
C204        C205   1.402       .  A
C204        C445   1.496       .  S
C205        H206   1.081       .  S
C208        C209   1.414       .  A
C208        C213   1.399       .  A
C208        C417   1.486       .  S
C209        C210   1.401       .  A
C209        C361   1.490       .  S
C210        C211   1.402       .  A
C210        H215   1.085       .  S
C211        C212   1.413       .  A
C211        C340   1.487       .  S
C212        C213   1.396       .  A
C212        C389   1.488       .  S
C213        H214   1.085       .  S
C216        C228   1.607       .  S
C216        C256   1.613       .  S
C216        C501   1.612   1_655  S
C216        C529   1.614       .  S
C217        C218   1.412       .  A
C217        C222   1.409       .  A
C217        C235   1.453       .  S
C218        C219   1.415   1_655  A
C218        C223   1.505       .  S
C219        C220   1.413       .  A
C219        C224   1.450       .  S
C220        C221   1.414   1_455  A
C220        C236   1.452       .  S
C221        C222   1.420       .  A
C222        C225   1.452       .  S
C223        C226   1.401       .  A
C223        C230   1.404       .  A
C224        N241   1.157       .  T
C225        N243   1.158       .  T
C226        C227   1.417       .  A
C226        C231   1.454       .  S
C227        C228   1.450       .  A
C227        C233   1.450       .  S
C228        C229   1.445       .  A
C229        C230   1.414       .  A
C229        C232   1.446       .  S
C230        C234   1.456   1_655  S
C231        N238   1.157       .  T
C232        N239   1.157       .  T
C233        N237   1.157       .  T
C234        N240   1.157       .  T
C235        N244   1.157       .  T
C236        N242   1.157       .  T
C245        C246   1.413       .  A
C245        C250   1.412       .  A
C245        C263   1.451       .  S
C246        C247   1.412   1_455  A
C246        C251   1.502       .  S
C247        C248   1.412       .  A
C247        C252   1.449       .  S
C248        C249   1.413   1_655  A
C248        C264   1.452       .  S
C249        C250   1.410       .  A
C250        C253   1.448       .  S
C251        C254   1.398   1_455  A
C251        C258   1.400       .  A
C252        N269   1.157       .  T
C253        N271   1.157       .  T
C254        C255   1.414       .  A
C254        C259   1.455       .  S
C255        C256   1.449       .  A
C255        C261   1.448       .  S
C256        C257   1.450   1_655  A
C257        C258   1.420       .  A
C257        C260   1.449       .  S
C258        C262   1.454       .  S
C259        N266   1.157       .  T
C260        N267   1.157       .  T
C261        N265   1.157       .  T
C262        N268   1.157       .  T
C263        N272   1.157       .  T
C264        N270   1.157       .  T
C273        C274   1.409       .  A
C273        C278   1.409       .  A
C273        C291   1.451       .  S
C274        C275   1.411   1_655  A
C274        C279   1.487       .  S
C275        C276   1.406       .  A
C275        C280   1.452       .  S
C276        C277   1.411       .  A
C276        C292   1.452       .  S
C277        C278   1.413   1_455  A
C278        C281   1.451       .  S
C279        C282   1.409   1_655  A
C279        C286   1.409       .  A
C280        N297   1.157       .  T
C281        N299   1.157       .  T
C282        C283   1.407       .  A
C282        C287   1.451       .  S
C283        C284   1.413   1_455  A
C283        C289   1.449       .  S
C284        C285   1.415       .  A
C285        C286   1.406       .  A
C285        C288   1.452       .  S
C286        C290   1.451       .  S
C287        N294   1.157       .  T
C288        N295   1.157       .  T
C289        N293   1.157       .  T
C290        N296   1.157       .  T
C291        N300   1.157       .  T
C292        N298   1.157       .  T
C301        C302   1.411   1_455  A
C301        C306   1.412       .  A
C301        C319   1.450       .  S
C302        C303   1.410       .  A
C302        C307   1.491       .  S
C303        C304   1.406       .  A
C303        C308   1.452       .  S
C304        C305   1.413       .  A
C304        C320   1.452       .  S
C305        C306   1.412   1_655  A
C306        C309   1.450       .  S
C307        C310   1.410       .  A
C307        C314   1.409   1_655  A
C308        N325   1.157       .  T
C309        N327   1.157       .  T
C310        C311   1.410       .  A
C310        C315   1.450       .  S
C311        C312   1.414       .  A
C311        C317   1.449       .  S
C312        C313   1.417   1_655  A
C313        C314   1.407       .  A
C313        C316   1.452       .  S
C314        C318   1.451       .  S
C315        N322   1.157       .  T
C316        N323   1.157       .  T
C317        N321   1.157       .  T
C318        N324   1.157       .  T
C319        N328   1.157       .  T
C320        N326   1.157       .  T
C329        C330   1.409   1_545  A
C329        C334   1.411       .  A
C329        C347   1.450       .  S
C330        C331   1.409       .  A
C330        C335   1.488       .  S
C331        C332   1.405       .  A
C331        C336   1.453       .  S
C332        C333   1.412       .  A
C332        C348   1.449       .  S
C333        C334   1.413   1_565  A
C334        C337   1.451       .  S
C335        C338   1.408       .  A
C335        C342   1.409   1_565  A
C336        N353   1.157       .  T
C337        N355   1.157       .  T
C338        C339   1.407       .  A
C338        C343   1.451       .  S
C339        C340   1.413       .  A
C339        C345   1.449       .  S
C340        C341   1.415   1_565  A
C341        C342   1.407       .  A
C341        C344   1.452       .  S
C342        C346   1.451       .  S
C343        N350   1.157       .  T
C344        N351   1.157       .  T
C345        N349   1.157       .  T
C346        N352   1.157       .  T
C347        N356   1.157       .  T
C348        N354   1.156       .  T
C357        C358   1.409   1_545  A
C357        C362   1.410       .  A
C357        C375   1.451       .  S
C358        C359   1.409       .  A
C358        C363   1.492   1_565  S
C359        C360   1.407       .  A
C359        C364   1.451       .  S
C360        C361   1.415       .  A
C360        C376   1.451       .  S
C361        C362   1.414   1_565  A
C362        C365   1.449       .  S
C363        C366   1.411   1_545  A
C363        C370   1.410       .  A
C364        N381   1.157       .  T
C365        N383   1.157       .  T
C366        C367   1.412       .  A
C366        C371   1.450       .  S
C367        C368   1.413       .  A
C367        C373   1.451       .  S
C368        C369   1.413   1_565  A
C369        C370   1.406       .  A
C369        C372   1.452       .  S
C370        C374   1.452       .  S
C371        N378   1.157       .  T
C372        N379   1.157       .  T
C373        N377   1.158       .  T
C374        N380   1.157       .  T
C375        N384   1.157       .  T
C376        N382   1.157       .  T
C385        C386   1.409       .  A
C385        C390   1.410       .  A
C385        C403   1.450       .  S
C386        C387   1.409   1_545  A
C386        C391   1.490       .  S
C387        C388   1.406       .  A
C387        C392   1.451       .  S
C388        C389   1.415       .  A
C388        C404   1.451       .  S
C389        C390   1.414   1_565  A
C390        C393   1.449       .  S
C391        C394   1.410   1_545  A
C391        C398   1.410       .  A
C392        N409   1.157       .  T
C393        N411   1.157       .  T
C394        C395   1.410       .  A
C394        C399   1.450       .  S
C395        C396   1.411   1_565  A
C395        C401   1.450       .  S
C396        C397   1.413       .  A
C397        C398   1.407       .  A
C397        C400   1.452       .  S
C398        C402   1.451       .  S
C399        N406   1.157       .  T
C400        N407   1.157       .  T
C401        N405   1.157       .  T
C402        N408   1.157       .  T
C403        N412   1.157       .  T
C404        N410   1.157       .  T
C413        C414   1.408       .  A
C413        C418   1.408       .  A
C413        C431   1.451       .  S
C414        C415   1.408   1_565  A
C414        C419   1.486       .  S
C415        C416   1.405       .  A
C415        C420   1.451       .  S
C416        C417   1.416   1_545  A
C416        C432   1.452       .  S
C417        C418   1.414       .  A
C418        C421   1.449       .  S
C419        C422   1.409   1_565  A
C419        C426   1.410       .  A
C420        N437   1.157       .  T
C421        N439   1.157       .  T
C422        C423   1.408       .  A
C422        C427   1.450       .  S
C423        C424   1.411   1_545  A
C423        C429   1.451       .  S
C424        C425   1.411       .  A
C425        C426   1.406       .  A
C425        C428   1.452       .  S
C426        C430   1.452       .  S
C427        N434   1.157       .  T
C428        N435   1.157       .  T
C429        N433   1.157       .  T
C430        N436   1.157       .  T
C431        N440   1.157       .  T
C432        N438   1.157       .  T
C441        C442   1.410   1_455  A
C441        C446   1.410       .  A
C441        C459   1.451       .  S
C442        C443   1.410       .  A
C442        C447   1.496       .  S
C443        C444   1.409       .  A
C443        C448   1.451       .  S
C444        C445   1.414       .  A
C444        C460   1.448       .  S
C445        C446   1.418   1_655  A
C446        C449   1.452       .  S
C447        C450   1.411       .  A
C447        C454   1.411   1_655  A
C448        N465   1.157       .  T
C449        N467   1.157       .  T
C450        C451   1.408       .  A
C450        C455   1.452       .  S
C451        C452   1.415       .  A
C451        C457   1.452       .  S
C452        C453   1.416   1_655  A
C453        C454   1.412       .  A
C453        C456   1.452       .  S
C454        C458   1.451       .  S
C455        N462   1.157       .  T
C456        N463   1.158       .  T
C457        N461   1.157       .  T
C458        N464   1.157       .  T
C459        N468   1.157       .  T
C460        N466   1.157       .  T
C469        C470   1.409   1_455  A
C469        C474   1.403       .  A
C469        C487   1.452       .  S
C470        C471   1.409       .  A
C470        C475   1.485       .  S
C471        C472   1.410       .  A
C471        C476   1.450       .  S
C472        C473   1.412       .  A
C472        C488   1.451       .  S
C473        C474   1.411   1_655  A
C474        C477   1.451       .  S
C475        C478   1.408       .  A
C475        C482   1.407   1_655  A
C476        N493   1.157       .  T
C477        N495   1.157       .  T
C478        C479   1.406       .  A
C478        C483   1.451       .  S
C479        C480   1.416       .  A
C479        C485   1.452       .  S
C480        C481   1.414   1_655  A
C481        C482   1.406       .  A
C481        C484   1.449       .  S
C482        C486   1.451       .  S
C483        N490   1.157       .  T
C484        N491   1.157       .  T
C485        N489   1.157       .  T
C486        N492   1.157       .  T
C487        N496   1.157       .  T
C488        N494   1.157       .  T
C497        C498   1.397       .  A
C497        C502   1.413       .  A
C497        C515   1.457       .  S
C498        C499   1.401       .  A
C498        C503   1.500       .  S
C499        C500   1.420       .  A
C499        C504   1.453       .  S
C500        C501   1.448       .  A
C500        C516   1.450       .  S
C501        C502   1.451       .  A
C502        C505   1.448       .  S
C503        C506   1.412       .  A
C503        C510   1.412       .  A
C504        N521   1.157       .  T
C505        N523   1.157       .  T
C506        C507   1.411       .  A
C506        C511   1.451       .  S
C507        C508   1.410       .  A
C507        C513   1.448       .  S
C508        C509   1.413       .  A
C509        C510   1.411       .  A
C509        C512   1.452       .  S
C510        C514   1.450       .  S
C511        N518   1.157       .  T
C512        N519   1.157       .  T
C513        N517   1.157       .  T
C514        N520   1.157       .  T
C515        N524   1.157       .  T
C516        N522   1.157       .  T
C525        C526   1.399       .  A
C525        C530   1.418       .  A
C525        C543   1.454       .  S
C526        C527   1.400       .  A
C526        C531   1.508       .  S
C527        C528   1.420       .  A
C527        C532   1.456       .  S
C528        C529   1.450       .  A
C528        C544   1.446       .  S
C529        C530   1.451       .  A
C530        C533   1.450       .  S
C531        C534   1.409       .  A
C531        C538   1.410       .  A
C532        N549   1.157       .  T
C533        N551   1.157       .  T
C534        C535   1.414       .  A
C534        C539   1.452       .  S
C535        C536   1.425       .  A
C535        C541   1.451       .  S
C536        C537   1.423       .  A
C537        C538   1.415       .  A
C537        C540   1.452       .  S
C538        C542   1.450       .  S
C539        N546   1.157       .  T
C540        N547   1.158       .  T
C541        N545   1.158       .  T
C542        N548   1.157       .  T
C543        N552   1.157       .  T
C544        N550   1.157   1_655  T
C553        C554   1.410       .  A
C553        C558   1.409       .  A
C553        C571   1.451       .  S
C554        C555   1.409       .  A
C554        C559   1.492       .  S
C555        C556   1.409       .  A
C555        C560   1.450       .  S
C556        C557   1.413       .  A
C556        C572   1.450       .  S
C557        C558   1.412       .  A
C558        C561   1.449       .  S
C559        C562   1.411       .  A
C559        C566   1.411       .  A
C560        N577   1.157       .  T
C561        N579   1.157       .  T
C562        C563   1.413       .  A
C562        C567   1.449       .  S
C563        C564   1.411       .  A
C563        C569   1.450       .  S
C564        C565   1.410       .  A
C565        C566   1.406       .  A
C565        C568   1.452       .  S
C566        C570   1.452       .  S
C567        N574   1.157       .  T
C568        N575   1.157       .  T
C569        N573   1.157       .  T
C570        N576   1.157       .  T
C571        N580   1.157       .  T
C572        N578   1.157       .  T
C581        C582   1.412       .  A
C581        C586   1.413       .  A
C581        C599   1.450       .  S
C582        C583   1.412       .  A
C582        C587   1.499       .  S
C583        C584   1.409       .  A
C583        C588   1.452       .  S
C584        C585   1.416       .  A
C584        C600   1.452       .  S
C585        C586   1.414       .  A
C586        C589   1.451       .  S
C587        C590   1.411       .  A
C587        C594   1.411       .  A
C588        N605   1.157       .  T
C589        N607   1.158       .  T
C590        C591   1.413       .  A
C590        C595   1.451       .  S
C591        C592   1.415       .  A
C591        C597   1.448       .  S
C592        C593   1.415       .  A
C593        C594   1.410       .  A
C593        C596   1.451       .  S
C594        C598   1.451       .  S
C595        N602   1.157       .  T
C596        N603   1.157       .  T
C597        N601   1.157       .  T
C598        N604   1.157       .  T
C599        N608   1.157       .  T
C600        N606   1.157       .  T
C609        C610   1.410       .  A
C609        C614   1.410       .  A
C609        C627   1.450       .  S
C610        C611   1.410       .  A
C610        C615   1.495       .  S
C611        C612   1.410       .  A
C611        C616   1.451       .  S
C612        C613   1.413       .  A
C612        C628   1.449       .  S
C613        C614   1.414       .  A
C614        C617   1.450       .  S
C615        C618   1.412       .  A
C615        C622   1.411       .  A
C616        N633   1.157       .  T
C617        N635   1.157       .  T
C618        C619   1.409       .  A
C618        C623   1.451       .  S
C619        C620   1.411       .  A
C619        C625   1.451       .  S
C620        C621   1.411       .  A
C621        C622   1.413       .  A
C621        C624   1.450       .  S
C622        C626   1.449       .  S
C623        N630   1.157       .  T
C624        N631   1.157       .  T
C625        N629   1.157       .  T
C626        N632   1.157       .  T
C627        N636   1.157       .  T
C628        N634   1.157       .  T
C637        C638   1.410       .  A
C637        C642   1.406       .  A
C637        C655   1.452       .  S
C638        C639   1.410       .  A
C638        C643   1.492       .  S
C639        C640   1.412       .  A
C639        C644   1.451       .  S
C640        C641   1.414       .  A
C640        C656   1.451       .  S
C641        C642   1.414       .  A
C642        C645   1.452       .  S
C643        C646   1.409       .  A
C643        C650   1.410       .  A
C644        N661   1.157       .  T
C645        N663   1.157       .  T
C646        C647   1.407       .  A
C646        C651   1.451       .  S
C647        C648   1.416       .  A
C647        C653   1.452       .  S
C648        C649   1.413       .  A
C649        C650   1.410       .  A
C649        C652   1.449       .  S
C650        C654   1.451       .  S
C651        N658   1.157       .  T
C652        N659   1.157       .  T
C653        N657   1.157       .  T
C654        N660   1.157       .  T
C655        N664   1.157       .  T
C656        N662   1.158       .  T
C665        C666   1.410   1_655  A
C665        C670   1.410       .  A
C665        C683   1.451       .  S
C666        C667   1.408       .  A
C666        C671   1.499       .  S
C667        C668   1.410       .  A
C667        C672   1.453       .  S
C668        C669   1.424   1_455  A
C668        C684   1.452       .  S
C669        C670   1.423       .  A
C670        C673   1.452       .  S
C671        C674   1.399       .  A
C671        C678   1.398       .  A
C672        N689   1.157       .  T
C673        N691   1.158       .  T
C674        C675   1.416       .  A
C674        C679   1.456       .  S
C675        C676   1.450       .  A
C675        C681   1.450       .  S
C676        C677   1.452       .  A
C677        C678   1.416       .  A
C677        C680   1.448       .  S
C678        C682   1.457       .  S
C679        N686   1.157       .  T
C680        N687   1.157       .  T
C681        N685   1.157       .  T
C682        N688   1.157       .  T
C683        N692   1.157       .  T
C684        N690   1.158       .  T
C693        C694   1.396       .  A
C693        C698   1.417       .  A
C693        C711   1.458       .  S
C694        C695   1.398   1_455  A
C694        C699   1.500       .  S
C695        C696   1.416       .  A
C695        C700   1.455       .  S
C696        C697   1.451   1_655  A
C696        C712   1.451       .  S
C697        C698   1.453       .  A
C698        C701   1.446       .  S
C699        C702   1.412       .  A
C699        C706   1.411   1_455  A
C700        N717   1.157       .  T
C701        N719   1.157       .  T
C702        C703   1.410       .  A
C702        C707   1.451       .  S
C703        C704   1.415       .  A
C703        C709   1.451       .  S
C704        C705   1.414   1_455  A
C705        C706   1.411       .  A
C705        C708   1.451       .  S
C706        C710   1.450       .  S
C707        N714   1.157       .  T
C708        N715   1.157       .  T
C709        N713   1.157       .  T
C710        N716   1.157       .  T
C711        N720   1.157       .  T
C712        N718   1.157       .  T
C721        C722   1.400       .  A
C721        C726   1.418       .  A
C721        C739   1.455       .  S
C722        C723   1.399       .  A
C722        C727   1.506       .  S
C723        C724   1.419       .  A
C723        C728   1.456       .  S
C724        C725   1.453       .  A
C724        C740   1.448   1_455  S
C725        C726   1.450       .  A
C726        C729   1.450       .  S
C727        C730   1.409       .  A
C727        C734   1.409       .  A
C728        N745   1.157       .  T
C729        N747   1.157       .  T
C730        C731   1.413       .  A
C730        C735   1.452       .  S
C731        C732   1.425       .  A
C731        C737   1.451       .  S
C732        C733   1.427       .  A
C733        C734   1.415       .  A
C733        C736   1.451       .  S
C734        C738   1.452       .  S
C735        N742   1.157       .  T
C736        N743   1.158       .  T
C737        N741   1.158       .  T
C738        N744   1.157       .  T
C739        N748   1.157       .  T
C740        N746   1.157       .  T
C749        C750   1.400       .  A
C749        C754   1.419       .  A
C749        C767   1.454       .  S
C750        C751   1.398       .  A
C750        C755   1.504       .  S
C751        C752   1.416       .  A
C751        C756   1.460       .  S
C752        C753   1.454       .  A
C752        C768   1.446       .  S
C753        C754   1.450       .  A
C754        C757   1.451       .  S
C755        C758   1.413       .  A
C755        C762   1.413       .  A
C756        N773   1.157       .  T
C757        N775   1.157   1_655  T
C758        C759   1.414       .  A
C758        C763   1.451       .  S
C759        C760   1.418       .  A
C759        C765   1.452       .  S
C760        C761   1.417       .  A
C761        C762   1.408       .  A
C761        C764   1.452       .  S
C762        C766   1.452       .  S
C763        N770   1.157       .  T
C764        N771   1.157       .  T
C765        N769   1.158       .  T
C766        N772   1.157       .  T
C767        N776   1.157       .  T
C768        N774   1.156       .  T
C777        C778   1.404   1_545  A
C777        C782   1.420       .  A
C777        C795   1.455       .  S
C778        C779   1.399       .  A
C778        C783   1.509       .  S
C779        C780   1.417       .  A
C779        C784   1.455       .  S
C780        C781   1.453       .  A
C780        C796   1.450       .  S
C781        C782   1.446   1_565  A
C782        C785   1.444   1_545  S
C783        C786   1.414   1_565  A
C783        C790   1.412       .  A
C784        N801   1.157       .  T
C785        N803   1.157       .  T
C786        C787   1.415       .  A
C786        C791   1.451       .  S
C787        C788   1.418   1_545  A
C787        C793   1.452       .  S
C788        C789   1.420       .  A
C789        C790   1.413       .  A
C789        C792   1.451       .  S
C790        C794   1.452       .  S
C791        N798   1.157       .  T
C792        N799   1.157       .  T
C793        N797   1.158       .  T
C794        N800   1.157       .  T
C795        N804   1.157       .  T
C796        N802   1.157       .  T
C805        C806   1.396   1_565  A
C805        C810   1.414       .  A
C805        C823   1.457       .  S
C806        C807   1.401       .  A
C806        C811   1.502       .  S
C807        C808   1.422       .  A
C807        C812   1.453       .  S
C808        C809   1.447       .  A
C808        C824   1.449       .  S
C809        C810   1.456   1_545  A
C810        C813   1.450       .  S
C811        C814   1.413       .  A
C811        C818   1.412   1_545  A
C812        N829   1.157       .  T
C813        N831   1.157       .  T
C814        C815   1.412       .  A
C814        C819   1.450       .  S
C815        C816   1.412   1_545  A
C815        C821   1.450       .  S
C816        C817   1.413       .  A
C817        C818   1.411       .  A
C817        C820   1.452       .  S
C818        C822   1.449       .  S
C819        N826   1.157       .  T
C820        N827   1.157       .  T
C821        N825   1.157       .  T
C822        N828   1.157       .  T
C823        N832   1.157       .  T
C824        N830   1.157       .  T
C833        C834   1.413       .  A
C833        C838   1.413       .  A
C833        C851   1.450       .  S
C834        C835   1.412       .  A
C834        C839   1.503       .  S
C835        C836   1.411       .  A
C835        C840   1.451       .  S
C836        C837   1.414       .  A
C836        C852   1.451       .  S
C837        C838   1.413       .  A
C838        C841   1.451       .  S
C839        C842   1.397       .  A
C839        C846   1.399       .  A
C840        N857   1.157       .  T
C841        N859   1.157       .  T
C842        C843   1.416       .  A
C842        C847   1.458       .  S
C843        C844   1.456       .  A
C843        C849   1.450       .  S
C844        C845   1.448       .  A
C845        C846   1.420       .  A
C845        C848   1.448       .  S
C846        C850   1.455       .  S
C847        N854   1.157       .  T
C848        N855   1.157       .  T
C849        N853   1.157       .  T
C850        N856   1.157       .  T
C851        N860   1.157       .  T
C852        N858   1.157       .  T
C861        C862   1.397       .  A
C861        C866   1.414       .  A
C861        C879   1.455       .  S
C862        C863   1.402       .  A
C862        C867   1.501       .  S
C863        C864   1.419       .  A
C863        C868   1.456       .  S
C864        C865   1.448       .  A
C864        C880   1.447       .  S
C865        C866   1.451       .  A
C866        C869   1.451       .  S
C867        C870   1.408       .  A
C867        C874   1.411       .  A
C868        N885   1.157       .  T
C869        N887   1.157       .  T
C870        C871   1.411       .  A
C870        C875   1.453       .  S
C871        C872   1.424       .  A
C871        C877   1.451       .  S
C872        C873   1.419       .  A
C873        C874   1.412       .  A
C873        C876   1.452       .  S
C874        C878   1.450       .  S
C875        N882   1.157       .  T
C876        N883   1.157       .  T
C877        N881   1.158       .  T
C878        N884   1.157       .  T
C879        N888   1.157       .  T
C880        N886   1.158   1_565  T
C889        C890   1.411       .  A
C889        C894   1.409       .  A
C889        C907   1.451       .  S
C890        C891   1.412       .  A
C890        C895   1.499       .  S
C891        C892   1.412       .  A
C891        C896   1.450       .  S
C892        C893   1.414       .  A
C892        C908   1.449       .  S
C893        C894   1.416       .  A
C894        C897   1.452       .  S
C895        C898   1.412       .  A
C895        C902   1.412       .  A
C896        N913   1.157       .  T
C897        N915   1.157       .  T
C898        C899   1.411       .  A
C898        C903   1.451       .  S
C899        C900   1.414       .  A
C899        C905   1.451       .  S
C900        C901   1.415       .  A
C901        C902   1.413       .  A
C901        C904   1.451       .  S
C902        C906   1.451       .  S
C903        N910   1.157       .  T
C904        N911   1.158       .  T
C905        N909   1.157       .  T
C906        N912   1.157       .  T
C907        N916   1.157       .  T
C908        N914   1.157       .  T
C917        C918   1.409       .  A
C917        C922   1.408       .  A
C917        C935   1.451       .  S
C918        C919   1.408       .  A
C918        C923   1.489       .  S
C919        C920   1.406       .  A
C919        C924   1.451       .  S
C920        C921   1.417       .  A
C920        C936   1.452       .  S
C921        C922   1.413       .  A
C922        C925   1.449       .  S
C923        C926   1.409       .  A
C923        C930   1.411       .  A
C924        N941   1.157       .  T
C925        N943   1.157       .  T
C926        C927   1.410       .  A
C926        C931   1.450       .  S
C927        C928   1.412       .  A
C927        C933   1.451       .  S
C928        C929   1.412       .  A
C929        C930   1.406       .  A
C929        C932   1.452       .  S
C930        C934   1.452       .  S
C931        N938   1.157       .  T
C932        N939   1.157       .  T
C933        N937   1.157       .  T
C934        N940   1.157       .  T
C935        N944   1.157       .  T
C936        N942   1.157       .  T
C945        C946   1.409       .  A
C945        C950   1.409       .  A
C945        C963   1.451       .  S
C946        C947   1.408       .  A
C946        C951   1.487       .  S
C947        C948   1.405       .  A
C947        C952   1.452       .  S
C948        C949   1.416       .  A
C948        C964   1.452       .  S
C949        C950   1.413       .  A
C950        C953   1.449       .  S
C951        C954   1.409       .  A
C951        C958   1.410       .  A
C952        N969   1.157       .  T
C953        N971   1.157       .  T
C954        C955   1.409       .  A
C954        C959   1.450       .  S
C955        C956   1.412       .  A
C955        C961   1.450       .  S
C956        C957   1.414       .  A
C957        C958   1.405       .  A
C957        C960   1.452       .  S
C958        C962   1.452       .  S
C959        N966   1.157       .  T
C960        N967   1.157       .  T
C961        N965   1.157       .  T
C962        N968   1.157       .  T
C963        N972   1.157       .  T
C964        N970   1.157       .  T
C973        C974   1.408       .  A
C973        C978   1.409       .  A
C973        C991   1.451       .  S
C974        C975   1.409       .  A
C974        C979   1.492       .  S
C975        C976   1.408       .  A
C975        C980   1.452       .  S
C976        C977   1.414       .  A
C976        C992   1.448       .  S
C977        C978   1.419       .  A
C978        C981   1.452       .  S
C979        C982   1.411       .  A
C979        C986   1.410       .  A
C980        N997   1.157       .  T
C981        N999   1.157       .  T
C982        C983   1.406       .  A
C982        C987   1.452       .  S
C983        C984   1.412       .  A
C983        C989   1.452       .  S
C984        C985   1.414       .  A
C985        C986   1.411       .  A
C985        C988   1.451       .  S
C986        C990   1.450       .  S
C987        N994   1.157       .  T
C988        N995   1.158       .  T
C989        N993   1.157       .  T
C990        N996   1.157       .  T
C991       N1000   1.157       .  T
C992        N998   1.157       .  T
C1001      C1002   1.409       .  A
C1001      C1006   1.411       .  A
C1001      C1019   1.453       .  S
C1002      C1003   1.411   1_565  A
C1002      C1007   1.503       .  S
C1003      C1004   1.412       .  A
C1003      C1008   1.450       .  S
C1004      C1005   1.420   1_545  A
C1004      C1020   1.452       .  S
C1005      C1006   1.424       .  A
C1006      C1009   1.452       .  S
C1007      C1010   1.402   1_565  A
C1007      C1014   1.399       .  A
C1008      N1025   1.157       .  T
C1009      N1027   1.158       .  T
C1010      C1011   1.418   1_545  A
C1010      C1015   1.456       .  S
C1011      C1012   1.448   1_565  A
C1011      C1017   1.447       .  S
C1012      C1013   1.450   1_545  A
C1013      C1014   1.415       .  A
C1013      C1016   1.451       .  S
C1014      C1018   1.455       .  S
C1015      N1022   1.157       .  T
C1016      N1023   1.157   1_565  T
C1017      N1021   1.158       .  T
C1018      N1024   1.157       .  T
C1019      N1028   1.157       .  T
C1020      N1026   1.158       .  T
C1029      C1030   1.412   1_545  A
C1029      C1034   1.411       .  A
C1029      C1047   1.451       .  S
C1030      C1031   1.410       .  A
C1030      C1035   1.499   1_565  S
C1031      C1032   1.410       .  A
C1031      C1036   1.451       .  S
C1032      C1033   1.415       .  A
C1032      C1048   1.449       .  S
C1033      C1034   1.412   1_565  A
C1034      C1037   1.447       .  S
C1035      C1038   1.399       .  A
C1035      C1042   1.397   1_545  A
C1036      N1053   1.157       .  T
C1037      N1055   1.156       .  T
C1038      C1039   1.418       .  A
C1038      C1043   1.455       .  S
C1039      C1040   1.449       .  A
C1039      C1045   1.448       .  S
C1040      C1041   1.451   1_545  A
C1041      C1042   1.413       .  A
C1041      C1044   1.449       .  S
C1042      C1046   1.456       .  S
C1043      N1050   1.157       .  T
C1044      N1051   1.157       .  T
C1045      N1049   1.157       .  T
C1046      N1052   1.157       .  T
C1047      N1056   1.157       .  T
C1048      N1054   1.156       .  T
C1057      C1058   1.411       .  A
C1057      C1062   1.411       .  A
C1057      C1075   1.451       .  S
C1058      C1059   1.410       .  A
C1058      C1063   1.499       .  S
C1059      C1060   1.410       .  A
C1059      C1064   1.451       .  S
C1060      C1061   1.418       .  A
C1060      C1076   1.451       .  S
C1061      C1062   1.413       .  A
C1062      C1065   1.448       .  S
C1063      C1066   1.400       .  A
C1063      C1070   1.396       .  A
C1064      N1081   1.157       .  T
C1065      N1083   1.156       .  T
C1066      C1067   1.417       .  A
C1066      C1071   1.455       .  S
C1067      C1068   1.446       .  A
C1067      C1073   1.449       .  S
C1068      C1069   1.455       .  A
C1069      C1070   1.415       .  A
C1069      C1072   1.450       .  S
C1070      C1074   1.457       .  S
C1071      N1078   1.157       .  T
C1072      N1079   1.157       .  T
C1073      N1077   1.157       .  T
C1074      N1080   1.157       .  T
C1075      N1084   1.157       .  T
C1076      N1082   1.157       .  T
C1085      C1086   1.414       .  A
C1085      C1090   1.414       .  A
C1085      C1103   1.450       .  S
C1086      C1087   1.410       .  A
C1086      C1091   1.508       .  S
C1087      C1088   1.413       .  A
C1087      C1092   1.452       .  S
C1088      C1089   1.423       .  A
C1088      C1104   1.451       .  S
C1089      C1090   1.416       .  A
C1090      C1093   1.452       .  S
C1091      C1094   1.398       .  A
C1091      C1098   1.404       .  A
C1092      N1109   1.157       .  T
C1093      N1111   1.158       .  T
C1094      C1095   1.415       .  A
C1094      C1099   1.454       .  S
C1095      C1096   1.451       .  A
C1095      C1101   1.450       .  S
C1096      C1097   1.448       .  A
C1097      C1098   1.420       .  A
C1097      C1100   1.447       .  S
C1098      C1102   1.455       .  S
C1099      N1106   1.157       .  T
C1100      N1107   1.158   1_565  T
C1101      N1105   1.157       .  T
C1102      N1108   1.157       .  T
C1103      N1112   1.157       .  T
C1104      N1110   1.158       .  T
