geometry optimzed in LAMMPS
_audit_creation_date              2020-12-01 
_audit_creation_method            'lammps2cif' 
_symmetry_space_group_name_H-M    'P1' 
_symmetry_Int_Tables_number       1 
_symmetry_cell_setting            triclinic 
loop_ 
_symmetry_equiv_pos_as_xyz 
  x,y,z 
_cell_length_a                    33.37907561 
_cell_length_b                    29.858459769443684 
_cell_length_c                    28.370533901415588 
_cell_angle_alpha                 88.79232192312314 
_cell_angle_beta                  91.03019432385791 
_cell_angle_gamma                 119.02058208550692 
loop_ 
_atom_site_label 
_atom_site_type_symbol 
_atom_site_fract_x 
_atom_site_fract_y 
_atom_site_fract_z 
_atom_site_charge 
Fe1        Fe  0.40413023  0.20045498  0.25895701     1.65800
Fe2        Fe  0.30586777  0.20764797  0.25369872     1.73200
Fe3        Fe  0.30249110  0.09252911  0.25142363     1.54400
O4          O  0.33719050  0.09252776  0.19176980    -0.81900
O5          O  0.25385016  0.15526870  0.29742194    -0.80200
O6          O  0.40832222  0.14931629  0.21351877    -0.84400
O7          O  0.40264773  0.15720237  0.31687852    -0.79300
O8          O  0.25015332  0.09171419  0.21029448    -0.81100
O9          O  0.34007407  0.24695624  0.31304864    -0.83800
C10         C  0.38383804  0.10886067  0.31788601     0.97000
C11         C  0.38045624  0.11310197  0.18742796     1.04400
O12         O  0.33738614  0.16703054  0.25467356    -1.12800
O13         O  0.35406840  0.26380333  0.20851050    -0.75200
O14         O  0.41103252  0.24585301  0.20137541    -0.78700
O15         O  0.34886319  0.08103478  0.29276263    -0.79400
C16         C  0.39074120  0.27071912  0.18877945     0.95900
O17         O  0.40958894  0.25623195  0.30480304    -0.77400
O18         O  0.26695700  0.17198124  0.19517069    -0.82600
C19         C  0.24394290  0.11258279  0.31762966     0.98500
C20         C  0.24144436  0.12424497  0.18988122     1.04400
O21         O  0.26564817  0.08822804  0.31036852    -0.78200
C22         C  0.38184285  0.26717584  0.32500475     1.02700
C23         C  0.05794905  0.04070856  0.10506695     0.86200
C24         C  0.02754711  0.48864042  0.11746989    -0.54000
C25         C  0.48896320  0.45863454  0.09089090     0.09200
C26         C  0.47237452  0.49108380  0.06166936     0.20100
C27         C  0.06091523  0.05202723  0.05237730    -0.54700
C28         C  0.51408741  0.52586507  0.03049766     0.09300
C29         C  0.02167224  0.05322310  0.12282135    -0.54300
C30         C  0.48100568  0.02995056  0.09850818     0.09800
H31         H  0.04175384  0.47306714  0.14349942     0.14300
H32         H  0.44035663  0.46861374  0.04129779     0.00100
H33         H  0.09377021  0.07795901  0.03710772     0.14600
H34         H  0.02663937  0.07756035  0.15245275     0.14400
C35         C  0.06376053  0.01988099  0.40692302     0.86200
C36         C  0.03635474  0.04275852  0.38254226    -0.54000
C37         C  0.49353170  0.02649005  0.40058997     0.09200
C38         C  0.47630651  0.48986909  0.44278356     0.20100
C39         C  0.06456176  0.03252389  0.45919258    -0.54700
C40         C  0.51796003  0.52284929  0.47468214     0.09300
C41         C  0.02787112  0.46853350  0.40146670    -0.54300
C42         C  0.48699781  0.44887039  0.42317667     0.09800
H43         H  0.04976037  0.06985730  0.35328516     0.14300
H44         H  0.44273070  0.47373353  0.46052146     0.00100
H45         H  0.09580690  0.04699827  0.47981275     0.14600
H46         H  0.03956272  0.44453505  0.38529156     0.14400
C47         C  0.38620357  0.03848339  0.16293266    -0.06000
C48         C  0.39948930  0.09013231  0.15515171    -0.00100
C49         C  0.43393599  0.11883981  0.12171848    -0.08700
C50         C  0.45567142  0.09494462  0.09897157    -0.06100
C51         C  0.44504652  0.04415373  0.10972266    -0.00100
C52         C  0.40881928  0.01509447  0.14155449    -0.08600
C53         C  0.89331327  0.95896202  0.15380126     0.61800
H54         H  0.35921128  0.01712407  0.18808624     0.12500
H55         H  0.48394847  0.11715626  0.07540609     0.12500
C56         C  0.44859875  0.17469122  0.11112702     0.62000
F57         F  0.86372474  0.94090217  0.19169186    -0.23100
F58         F  0.93022436  0.95151333  0.16452311    -0.20500
F59         F  0.36957214  0.93210727  0.11299726    -0.20200
F60         F  0.47167035  0.20421488  0.14955728    -0.20200
F61         F  0.41049308  0.18022198  0.10119819    -0.20500
F62         F  0.47743869  0.19304421  0.07267806    -0.23200
C63         C  0.13214928  0.04044879  0.12103195    -0.06000
C64         C  0.10675675  0.06661197  0.12670631    -0.00100
C65         C  0.13125530  0.11788496  0.14363688    -0.08700
C66         C  0.17523887  0.13500902  0.16361706    -0.06100
C67         C  0.19784209  0.10572770  0.16271891    -0.00100
C68         C  0.17682394  0.05865924  0.13870672    -0.08600
C69         C  0.20120497  0.02765812  0.13085008     0.61800
H70         H  0.11674911  0.00485579  0.10209539     0.12500
H71         H  0.19215894  0.17186663  0.18069555     0.12500
C72         C  0.11408551  0.15666000  0.14011215     0.62000
F73         F  0.17910568  0.99041810  0.09715199    -0.23100
F74         F  0.20254905  0.00333519  0.17237833    -0.20500
F75         F  0.24536549  0.05949151  0.11538964    -0.20200
F76         F  0.08901381  0.15288034  0.17968397    -0.20200
F77         F  0.08804897  0.15011729  0.09983202    -0.20500
F78         F  0.15050285  0.20611053  0.13770864    -0.23200
C79         C  0.41545902  0.37505413  0.09511468    -0.06300
C80         C  0.46350908  0.40133646  0.09741370    -0.00100
C81         C  0.48542508  0.37408232  0.11557889    -0.08700
C82         C  0.46040179  0.33119074  0.14466255    -0.06100
C83         C  0.41307082  0.31118386  0.15156745    -0.00100
C84         C  0.38946534  0.32993279  0.12209120    -0.08600
C85         C  0.33757316  0.30283316  0.11873086     0.61800
H86         H  0.39825585  0.39140099  0.07445919     0.12500
H87         H  0.47850197  0.31371573  0.16242425     0.12500
C88         C  0.03436399  0.38773662  0.10519875     0.62000
F89         F  0.32270316  0.31952576  0.07971909    -0.23100
F90         F  0.31965427  0.31218118  0.15854433    -0.20500
F91         F  0.32074877  0.25063063  0.11445016    -0.20200
F92         F  0.06107588  0.40283132  0.14570803    -0.20200
F93         F  0.05349830  0.42608355  0.07124201    -0.20500
F94         F  0.03465510  0.34492313  0.08787403    -0.23200
C95         C  0.41855454  0.05369249  0.31534010    -0.06000
C96         C  0.40723653  0.08417532  0.34293387    -0.00100
C97         C  0.42173445  0.09297594  0.39066106    -0.08700
C98         C  0.44796662  0.07102842  0.40893337    -0.06100
C99         C  0.46131982  0.04278643  0.38035001    -0.00100
C100        C  0.44553783  0.03292800  0.33291083    -0.08600
C101        C  0.95982221  0.00513921  0.29899243     0.61800
H102        H  0.40803080  0.04837206  0.27856209     0.12500
H103        H  0.46012747  0.07779055  0.44512657     0.12500
C104        C  0.40968721  0.12524681  0.42189593     0.62000
F105        F  0.92864801  0.98550244  0.26218967    -0.23100
F106        F  0.96119992  0.96440772  0.32097970    -0.20500
F107        F  0.00229375  0.03803093  0.28032706    -0.20200
F108        F  0.36282308  0.10668752  0.42091875    -0.20200
F109        F  0.43151341  0.17557015  0.40608191    -0.20500
F110        F  0.42301021  0.12439742  0.46826054    -0.23200
C111        C  0.16608903  0.04258046  0.32653122    -0.06000
C112        C  0.20172320  0.08713638  0.34573327    -0.00100
C113        C  0.19293504  0.10949421  0.38469464    -0.08700
C114        C  0.14820014  0.08642445  0.40264827    -0.06100
C115        C  0.11162155  0.04071722  0.38424259    -0.00100
C116        C  0.12072946  0.02073260  0.34261602    -0.08600
C117        C  0.08484188  0.97890621  0.31170194     0.61800
H118        H  0.17341739  0.02679981  0.29582180     0.12500
H119        H  0.14206224  0.10607906  0.43084215     0.12500
C120        C  0.22922239  0.15702445  0.40918024     0.62000
F121        F  0.09756178  0.98788937  0.26474733    -0.23100
F122        F  0.08076992  0.93205768  0.32493526    -0.20500
F123        F  0.03188049  0.48258948  0.30705688    -0.20200
F124        F  0.21850519  0.19612837  0.40355132    -0.20200
F125        F  0.27286181  0.17376832  0.39227133    -0.20500
F126        F  0.22977381  0.14639360  0.45682811    -0.23200
C127        C  0.43928065  0.31230721  0.38766180    -0.06000
C128        C  0.40008017  0.30607296  0.36288606    -0.00100
C129        C  0.38272125  0.34019365  0.37197608    -0.08700
C130        C  0.40911187  0.38315268  0.40017855    -0.06100
C131        C  0.45245131  0.39387047  0.41740345    -0.00100
C132        C  0.46518054  0.35507356  0.41581859    -0.08600
C133        C  0.00290049  0.35596466  0.44414597     0.61800
H134        H  0.45096261  0.28447000  0.38359254     0.12500
H135        H  0.39864124  0.41197979  0.40364513     0.12500
C136        C  0.33886527  0.33438675  0.34928751     0.62000
F137        F  0.98755610  0.31167461  0.47121016    -0.23100
F138        F  0.02289929  0.39711716  0.47421274    -0.20500
F139        F  0.03560225  0.35861254  0.41324628    -0.20200
F140        F  0.30220473  0.28807805  0.36288897    -0.20200
F141        F  0.34272314  0.33667170  0.30070884    -0.20500
F142        F  0.32946059  0.37266557  0.36258755    -0.23200
Fe143      Fe  0.39975246  0.20158661  0.75543664     1.65800
Fe144      Fe  0.30319611  0.21233789  0.74788034     1.73200
Fe145      Fe  0.29647333  0.09537768  0.74922982     1.54400
O146        O  0.32998455  0.09297558  0.68979481    -0.81900
O147        O  0.25046258  0.16198571  0.79125769    -0.80200
O148        O  0.40202953  0.14989965  0.70911776    -0.84400
O149        O  0.39778119  0.15755583  0.81317906    -0.79300
O150        O  0.24469448  0.09510245  0.70811966    -0.81100
O151        O  0.33764002  0.25275973  0.80666583    -0.83800
C152        C  0.37706498  0.10916569  0.81561063     0.97000
C153        C  0.37302671  0.11340432  0.68393456     1.04400
O154        O  0.33312846  0.16997243  0.75098672    -1.12800
O155        O  0.35182193  0.26687087  0.70262376    -0.75200
O156        O  0.40835579  0.24805557  0.69817514    -0.78700
O157        O  0.34144458  0.08213050  0.79108940    -0.79400
C158        C  0.38873059  0.27319304  0.68423690     0.95900
O159        O  0.40587897  0.25735652  0.80186944    -0.77400
O160        O  0.26449581  0.17576255  0.68967396    -0.82600
C161        C  0.23936843  0.11971801  0.81272112     0.98500
C162        C  0.23729847  0.12812358  0.68689408     1.04400
O163        O  0.26050948  0.09430467  0.80778073    -0.78200
C164        C  0.37888078  0.27079568  0.82012453     1.02700
C165        C  0.05130410  0.04545439  0.61013223     0.86200
C166        C  0.03046582  0.49013973  0.61361290    -0.54000
C167        C  0.49077461  0.46076578  0.58807480     0.09200
C168        C  0.47529695  0.49473796  0.55951861     0.20100
C169        C  0.05619593  0.05472335  0.55682169    -0.54700
C170        C  0.51673752  0.52759181  0.52729507     0.09300
C171        C  0.01335478  0.05821343  0.62161867    -0.54300
C172        C  0.47375145  0.03197702  0.59657760     0.09800
H173        H  0.04422080  0.47399291  0.63953362     0.14300
H174        H  0.44250293  0.47339403  0.54019114     0.00100
H175        H  0.08899950  0.08145966  0.54168824     0.14600
H176        H  0.01578823  0.08650669  0.64579819     0.14400
C177        C  0.05852267  0.02839570  0.89801039     0.86200
C178        C  0.02580475  0.04572668  0.87693332    -0.54000
C179        C  0.48509941  0.02624519  0.89952049     0.09200
C180        C  0.47822833  0.49134280  0.94340224     0.20100
C181        C  0.06234503  0.04161679  0.95039727    -0.54700
C182        C  0.51821733  0.52075401  0.97841512     0.09300
C183        C  0.02976121  0.46592952  0.90664860    -0.54300
C184        C  0.48682445  0.44852073  0.92459303     0.09800
H185        H  0.03419213  0.07104783  0.84630062     0.14300
H186        H  0.44371755  0.47707771  0.95869003     0.00100
H187        H  0.09542281  0.05983848  0.96755235     0.14600
H188        H  0.04103132  0.44123587  0.89102465     0.14400
C189        C  0.38027436  0.03926923  0.66301881    -0.06000
C190        C  0.39039844  0.08916798  0.65137645    -0.00100
C191        C  0.42040454  0.11532704  0.61372740    -0.08700
C192        C  0.44188825  0.09112793  0.59089390    -0.06100
C193        C  0.43528161  0.04268699  0.60578314    -0.00100
C194        C  0.40269273  0.01577390  0.64169490    -0.08600
C195        C  0.88902361  0.96086179  0.65648607     0.61800
H196        H  0.35618688  0.01974208  0.69120751     0.12500
H197        H  0.46748199  0.11197708  0.56429635     0.12500
C198        C  0.43054663  0.16887007  0.59887473     0.62000
F199        F  0.86174940  0.94538425  0.69616360    -0.23100
F200        F  0.92738512  0.95609445  0.66673518    -0.20500
F201        F  0.36446110  0.92975379  0.62155326    -0.20200
F202        F  0.45488902  0.20307167  0.63410006    -0.20200
F203        F  0.38989910  0.16960789  0.59058131    -0.20500
F204        F  0.45616323  0.18504247  0.55806030    -0.23200
C205        C  0.12964787  0.05484380  0.61386051    -0.06000
C206        C  0.09967942  0.07076233  0.63330387    -0.00100
C207        C  0.11694003  0.10615246  0.67142398    -0.08700
C208        C  0.16346911  0.12661014  0.68447317    -0.06100
C209        C  0.19221344  0.11050367  0.66431489    -0.00100
C210        C  0.17504919  0.07329665  0.62908899    -0.08600
C211        C  0.20445010  0.05302533  0.60778557     0.61800
H212        H  0.11664977  0.02641537  0.58643792     0.12500
H213        H  0.17768001  0.15414515  0.71261599     0.12500
C214        C  0.08807014  0.12132934  0.70090355     0.62000
F215        F  0.18345191  0.02277772  0.56900289    -0.23100
F216        F  0.21247996  0.02364096  0.64095467    -0.20500
F217        F  0.24585378  0.09342697  0.59339762    -0.20200
F218        F  0.04880211  0.07808683  0.71553612    -0.20200
F219        F  0.07782644  0.15439383  0.67521783    -0.20500
F220        F  0.11085366  0.14666636  0.74144139    -0.23200
C221        C  0.41651773  0.37753570  0.58990875    -0.06300
C222        C  0.46446714  0.40335127  0.59377687    -0.00100
C223        C  0.48535054  0.37522151  0.61246609    -0.08700
C224        C  0.45940313  0.33254173  0.64134068    -0.06100
C225        C  0.41207671  0.31333416  0.64712307    -0.00100
C226        C  0.38949072  0.33262131  0.61673073    -0.08600
C227        C  0.33767542  0.30634207  0.61224243     0.61800
H228        H  0.40023668  0.39395913  0.56798766     0.12500
H229        H  0.47673670  0.31450012  0.65966657     0.12500
C230        C  0.03446569  0.38761070  0.60279748     0.62000
F231        F  0.32393976  0.32371011  0.57283886    -0.23100
F232        F  0.31923207  0.31587627  0.65154256    -0.20500
F233        F  0.32029060  0.25406350  0.60780542    -0.20200
F234        F  0.06108542  0.40257316  0.64337428    -0.20200
F235        F  0.05437172  0.42534604  0.56843935    -0.20500
F236        F  0.03363568  0.34391669  0.58621065    -0.23200
C237        C  0.40438585  0.04669523  0.81741993    -0.06000
C238        C  0.39829694  0.08285878  0.84237492    -0.00100
C239        C  0.41573478  0.09500162  0.88904302    -0.08700
C240        C  0.44038228  0.07150477  0.90832793    -0.06100
C241        C  0.44918180  0.03809765  0.88179127    -0.00100
C242        C  0.42969111  0.02427724  0.83592336    -0.08600
C243        C  0.93465690  0.98642388  0.80343020     0.61800
H244        H  0.39103899  0.03759080  0.78167332     0.12500
H245        H  0.45569239  0.08177491  0.94315570     0.12500
C246        C  0.40895487  0.13286277  0.91802187     0.62000
F247        F  0.89220297  0.94983022  0.78719230    -0.23100
F248        F  0.95484188  0.96102980  0.82562693    -0.20500
F249        F  0.96109419  0.01348040  0.76520936    -0.20200
F250        F  0.36292437  0.11881247  0.91893025    -0.20200
F251        F  0.43328553  0.18145989  0.89852918    -0.20500
F252        F  0.42401653  0.13457163  0.96409193    -0.23200
C253        C  0.16097537  0.05113586  0.81952252    -0.06000
C254        C  0.19617868  0.09605856  0.83883259    -0.00100
C255        C  0.18584223  0.12146830  0.87403313    -0.08700
C256        C  0.14041770  0.09995542  0.88936775    -0.06100
C257        C  0.10499393  0.05277952  0.87243014    -0.00100
C258        C  0.11510662  0.03111481  0.83293691    -0.08600
C259        C  0.07998516  0.99099473  0.80028754     0.61800
H260        H  0.16890204  0.03398818  0.79025076     0.12500
H261        H  0.13293903  0.12084873  0.91533881     0.12500
C262        C  0.22112912  0.17010979  0.89789897     0.62000
F263        F  0.09220168  0.00541607  0.75374784    -0.23100
F264        F  0.07869068  0.94449678  0.80854522    -0.20500
F265        F  0.03563147  0.48047542  0.81431540    -0.20200
F266        F  0.21035404  0.20878346  0.88906709    -0.20200
F267        F  0.26540157  0.18658998  0.88316056    -0.20500
F268        F  0.22001355  0.16129120  0.94606017    -0.23200
C269        C  0.43264848  0.31171485  0.88662655    -0.06000
C270        C  0.39729048  0.30994573  0.85771934    -0.00100
C271        C  0.38396032  0.34824517  0.86274128    -0.08700
C272        C  0.41013261  0.38967164  0.89269670    -0.06100
C273        C  0.45002116  0.39525777  0.91517393    -0.00100
C274        C  0.45857414  0.35321641  0.91619461    -0.08600
C275        C  0.99710246  0.35027924  0.94540601     0.61800
H276        H  0.44123111  0.28110186  0.88499665     0.12500
H277        H  0.40270096  0.42107530  0.89409046     0.12500
C278        C  0.34512718  0.34837155  0.83392995     0.62000
F279        F  0.97863126  0.30448341  0.97053460    -0.23100
F280        F  0.01645700  0.38959589  0.97748153    -0.20500
F281        F  0.03098037  0.35276732  0.91633418    -0.20200
F282        F  0.30414053  0.30554261  0.84531779    -0.20200
F283        F  0.35350209  0.34852904  0.78631300    -0.20500
F284        F  0.34040112  0.39106033  0.84248920    -0.23200
Fe285      Fe  0.39665862  0.69855754  0.25457208     1.65800
Fe286      Fe  0.30197173  0.71284437  0.24725167     1.73200
Fe287      Fe  0.29195314  0.59434310  0.24891059     1.54400
O288        O  0.32488164  0.58953250  0.18989801    -0.81900
O289        O  0.24789113  0.66329537  0.28997388    -0.80200
O290        O  0.39731936  0.64446509  0.20972937    -0.84400
O291        O  0.39335787  0.65520870  0.31343971    -0.79300
O292        O  0.24116303  0.59633150  0.20720560    -0.81100
O293        O  0.33662021  0.75208727  0.30639684    -0.83800
C294        C  0.37194840  0.60679306  0.31610333     0.97000
C295        C  0.36781788  0.60798037  0.18479284     1.04400
O296        O  0.33015910  0.66873202  0.25027313    -1.12800
O297        O  0.35198633  0.76651343  0.20234725    -0.75200
O298        O  0.40600713  0.74399659  0.19603132    -0.78700
O299        O  0.33617786  0.58011334  0.29150206    -0.79400
C300        C  0.38765096  0.77069121  0.18266440     0.95900
O301        O  0.40463863  0.75640736  0.29977895    -0.77400
O302        O  0.26312339  0.67761563  0.18879552    -0.82600
C303        C  0.23546428  0.62062382  0.31123812     0.98500
C304        C  0.23489636  0.63026936  0.18596825     1.04400
O305        O  0.25620294  0.59469928  0.30707942    -0.78200
C306        C  0.37813866  0.77015103  0.31879594     1.02700
C307        C  0.04837385  0.54673419  0.11021297     0.86200
C308        C  0.03332311  0.98202438  0.11003283    -0.54000
C309        C  0.49307363  0.95582748  0.08557824     0.09200
C310        C  0.47949531  0.99286351  0.05950455     0.20100
C311        C  0.05208208  0.55611823  0.05691024    -0.54700
C312        C  0.52120271  0.02541054  0.02741682     0.09300
C313        C  0.00866182  0.55618959  0.12291958    -0.54300
C314        C  0.46916353  0.52754201  0.09822353     0.09800
H315        H  0.04531055  0.96284192  0.13469536     0.14300
H316        H  0.44642580  0.97386651  0.04024703     0.00100
H317        H  0.08410270  0.58445928  0.04143868     0.14600
H318        H  0.00948810  0.58291748  0.14804930     0.14400
C319        C  0.05481585  0.52729172  0.39903071     0.86200
C320        C  0.02185205  0.54416039  0.37744223    -0.54000
C321        C  0.48030736  0.52418148  0.39965095     0.09200
C322        C  0.48242951  0.98996498  0.44340660     0.20100
C323        C  0.05851451  0.54107334  0.45130420    -0.54700
C324        C  0.52239606  0.01835946  0.47851169     0.09300
C325        C  0.03211066  0.96152962  0.40753696    -0.54300
C326        C  0.48896073  0.94555308  0.42514248     0.09800
H327        H  0.03021405  0.56920559  0.34661573     0.14300
H328        H  0.44799922  0.97739865  0.45822538     0.00100
H329        H  0.09141657  0.55919685  0.46892815     0.14600
H330        H  0.04169674  0.93488774  0.39323754     0.14400
C331        C  0.37604546  0.53329776  0.16596078    -0.06000
C332        C  0.38442232  0.58237528  0.15270611    -0.00100
C333        C  0.41196627  0.60697426  0.11304587    -0.08700
C334        C  0.43399153  0.58322027  0.09057668    -0.06100
C335        C  0.42956774  0.53626552  0.10709353    -0.00100
C336        C  0.39810872  0.50964005  0.14388708    -0.08600
C337        C  0.88501544  0.45586876  0.15772954     0.61800
H338        H  0.35351686  0.51456356  0.19546673     0.12500
H339        H  0.45829184  0.60345720  0.06273850     0.12500
C340        C  0.41879431  0.65848293  0.09550942     0.62000
F341        F  0.85677103  0.43962731  0.19666889    -0.23100
F342        F  0.92401263  0.45281961  0.16928301    -0.20500
F343        F  0.36299993  0.42339935  0.12309683    -0.20200
F344        F  0.44272599  0.69543531  0.12879894    -0.20200
F345        F  0.37659369  0.65555930  0.08744729    -0.20500
F346        F  0.44309774  0.67352458  0.05383830    -0.23200
C347        C  0.12758894  0.55862705  0.11234747    -0.06000
C348        C  0.09741042  0.57410442  0.13207645    -0.00100
C349        C  0.11545744  0.61179935  0.16829247    -0.08700
C350        C  0.16172174  0.63109127  0.18234641    -0.06100
C351        C  0.19017723  0.61411771  0.16282433    -0.00100
C352        C  0.17326873  0.57786798  0.12684784    -0.08600
C353        C  0.20366175  0.56025345  0.10335445     0.61800
H354        H  0.11463102  0.53012032  0.08499924     0.12500
H355        H  0.17602867  0.65861366  0.21047040     0.12500
C356        C  0.08780027  0.63178555  0.19358673     0.62000
F357        F  0.18221264  0.52958643  0.06493822    -0.23100
F358        F  0.21501846  0.53239015  0.13511585    -0.20500
F359        F  0.24330629  0.60243345  0.08771992    -0.20200
F360        F  0.05074310  0.59156853  0.21548814    -0.20200
F361        F  0.07399486  0.65748269  0.16181923    -0.20500
F362        F  0.11298335  0.66626090  0.22846681    -0.23200
C363        C  0.41672254  0.87611774  0.08882660    -0.06300
C364        C  0.46453093  0.89852733  0.08991135    -0.00100
C365        C  0.48350593  0.86744733  0.10587993    -0.08700
C366        C  0.45690161  0.82489264  0.13480807    -0.06100
C367        C  0.41080156  0.80985314  0.14446899    -0.00100
C368        C  0.38910834  0.83256717  0.11696119    -0.08600
C369        C  0.33764773  0.81194382  0.11738249     0.61800
H370        H  0.40140041  0.89476191  0.06851615     0.12500
H371        H  0.47298517  0.80423329  0.15076857     0.12500
C372        C  0.03080251  0.87665008  0.09180796     0.62000
F373        F  0.32344439  0.83269131  0.08096915    -0.23100
F374        F  0.32491590  0.82387946  0.15941399    -0.20500
F375        F  0.31526944  0.75937877  0.11196014    -0.20200
F376        F  0.05818606  0.88685123  0.13165124    -0.20200
F377        F  0.05216484  0.91650769  0.05967922    -0.20500
F378        F  0.02643909  0.83285032  0.07128831    -0.23200
C379        C  0.39815448  0.54326463  0.31853323    -0.06000
C380        C  0.39263112  0.57999903  0.34316691    -0.00100
C381        C  0.41033507  0.59235928  0.38973528    -0.08700
C382        C  0.43518707  0.56904262  0.40895801    -0.06100
C383        C  0.44374746  0.53536527  0.38251131    -0.00100
C384        C  0.42349926  0.52085994  0.33704256    -0.08600
C385        C  0.93078901  0.48540011  0.30380703     0.61800
H386        H  0.38441651  0.53374758  0.28297029     0.12500
H387        H  0.45103194  0.57991097  0.44351314     0.12500
C388        C  0.40427254  0.63085854  0.41845515     0.62000
F389        F  0.88827307  0.44947431  0.28710991    -0.23100
F390        F  0.95004175  0.45922151  0.32639507    -0.20500
F391        F  0.95786240  0.51228653  0.26589519    -0.20200
F392        F  0.35894515  0.61979174  0.41687019    -0.20200
F393        F  0.43158064  0.67962396  0.40042328    -0.20500
F394        F  0.41643333  0.63002451  0.46527451    -0.23200
C395        C  0.15627056  0.55189916  0.31743690    -0.06000
C396        C  0.19147664  0.59707238  0.33626720    -0.00100
C397        C  0.18175336  0.62164775  0.37256426    -0.08700
C398        C  0.13688362  0.59881858  0.39006531    -0.06100
C399        C  0.10127960  0.55158305  0.37322908    -0.00100
C400        C  0.11074089  0.53066510  0.33262117    -0.08600
C401        C  0.07520824  0.48929359  0.30119010     0.61800
H402        H  0.16393552  0.53512227  0.28769248     0.12500
H403        H  0.12936782  0.61913276  0.41648304     0.12500
C404        C  0.21880440  0.67135992  0.39314439     0.62000
F405        F  0.08593060  0.50271639  0.25421531    -0.23100
F406        F  0.07512209  0.44350442  0.30994933    -0.20500
F407        F  0.04290342  0.97688979  0.31373793    -0.20200
F408        F  0.23107394  0.71064160  0.36038143    -0.20200
F409        F  0.25685885  0.66640611  0.40507840    -0.20500
F410        F  0.20423567  0.68450603  0.43336686    -0.23200
C411        C  0.43033957  0.80868530  0.38697149    -0.06000
C412        C  0.39722407  0.80943823  0.35620226    -0.00100
C413        C  0.38630666  0.84980556  0.35965749    -0.08700
C414        C  0.41263437  0.89048997  0.39030393    -0.06100
C415        C  0.45060889  0.89336558  0.41490397    -0.00100
C416        C  0.45643533  0.84948709  0.41723959    -0.08600
C417        C  0.98955809  0.84418546  0.45155522     0.61800
H418        H  0.43688420  0.77650101  0.38645096     0.12500
H419        H  0.40703933  0.92325402  0.39081308     0.12500
C420        C  0.34997795  0.85266481  0.32857232     0.62000
F421        F  0.96604198  0.79892618  0.47704625    -0.23100
F422        F  0.00842986  0.88383450  0.48328389    -0.20500
F423        F  0.02439553  0.84283307  0.42708736    -0.20200
F424        F  0.30736295  0.81199955  0.33904829    -0.20200
F425        F  0.35960902  0.85120590  0.28156949    -0.20500
F426        F  0.34798427  0.89735500  0.33525373    -0.23200
Fe427      Fe  0.39835980  0.69946747  0.75660125     1.65800
Fe428      Fe  0.30216308  0.71037888  0.75346802     1.73200
Fe429      Fe  0.29521388  0.59339030  0.74985529     1.54400
O430        O  0.32877813  0.59167291  0.69001547    -0.81900
O431        O  0.24947283  0.65868207  0.79679560    -0.80200
O432        O  0.40049659  0.64696694  0.71126260    -0.84400
O433        O  0.39627020  0.65600772  0.81479920    -0.79300
O434        O  0.24362431  0.59499325  0.70865004    -0.81100
O435        O  0.33707229  0.74799035  0.81303442    -0.83800
C436        C  0.37612273  0.60754754  0.81642959     0.97000
C437        C  0.37186871  0.61115784  0.68528294     1.04400
O438        O  0.33176645  0.66781898  0.75323790    -1.12800
O439        O  0.35112465  0.76637294  0.70873667    -0.75200
O440        O  0.40537780  0.74470884  0.69866933    -0.78700
O441        O  0.34084336  0.58027535  0.79134689    -0.79400
C442        C  0.38660249  0.77162361  0.68760852     0.95900
O443        O  0.40605326  0.75665474  0.80211594    -0.77400
O444        O  0.26296392  0.67648745  0.69489151    -0.82600
C445        C  0.23856715  0.61557791  0.81660972     0.98500
C446        C  0.23636754  0.62909616  0.68905917     1.04400
O447        O  0.25924040  0.59021711  0.80900936    -0.78200
C448        C  0.37917130  0.76813374  0.82343629     1.02700
C449        C  0.05282378  0.54834177  0.60572310     0.86200
C450        C  0.02812634  0.98712849  0.61734893    -0.54000
C451        C  0.48936961  0.95964954  0.59101791     0.09200
C452        C  0.47525252  0.99364421  0.56089977     0.20100
C453        C  0.05588923  0.55667191  0.55243375    -0.54700
C454        C  0.51797121  0.02583579  0.53000755     0.09300
C455        C  0.01444911  0.55928234  0.62003512    -0.54300
C456        C  0.47462496  0.53258763  0.59625168     0.09800
H457        H  0.04118094  0.96997742  0.64310352     0.14300
H458        H  0.44316435  0.97231472  0.54032782     0.00100
H459        H  0.08824921  0.58344558  0.53662932     0.14600
H460        H  0.01659796  0.58445256  0.64760101     0.14400
C461        C  0.05894184  0.52454092  0.90599170     0.86200
C462        C  0.02930365  0.54502524  0.88267231    -0.54000
C463        C  0.48759794  0.52789725  0.90061458     0.09200
C464        C  0.47991017  0.99096759  0.94229409     0.20100
C465        C  0.06007369  0.53682708  0.95832778    -0.54700
C466        C  0.52196049  0.02219644  0.97450526     0.09300
C467        C  0.03140180  0.96962622  0.89976140    -0.54300
C468        C  0.48891444  0.94911571  0.92184996     0.09800
H469        H  0.04154450  0.57280164  0.85388362     0.14300
H470        H  0.44636682  0.97563824  0.95998664     0.00100
H471        H  0.09173589  0.55275408  0.97832488     0.14600
H472        H  0.04294551  0.94570828  0.88317966     0.14400
C473        C  0.37742319  0.53659394  0.65942893    -0.06000
C474        C  0.38992436  0.58811526  0.65195870    -0.00100
C475        C  0.42324633  0.61715738  0.61770338    -0.08700
C476        C  0.44559428  0.59426213  0.59455472    -0.06100
C477        C  0.43668167  0.54413277  0.60577869    -0.00100
C478        C  0.40058796  0.51409927  0.63745529    -0.08600
C479        C  0.88770943  0.45836908  0.65099225     0.61800
H480        H  0.35101412  0.51486571  0.68503264     0.12500
H481        H  0.47352925  0.61713744  0.57082099     0.12500
C482        C  0.43670411  0.67271796  0.60731207     0.62000
F483        F  0.85802977  0.43972294  0.68876530    -0.23100
F484        F  0.92591084  0.45377854  0.66269066    -0.20500
F485        F  0.36467155  0.43088304  0.60830383    -0.20200
F486        F  0.46177084  0.70275097  0.64472199    -0.20200
F487        F  0.39785632  0.67759402  0.60036603    -0.20500
F488        F  0.46315412  0.69088375  0.56715905    -0.23200
C489        C  0.12994790  0.55442006  0.61391405    -0.06000
C490        C  0.10195929  0.57573570  0.62704293    -0.00100
C491        C  0.12324996  0.62177110  0.65384020    -0.08700
C492        C  0.16756207  0.63792793  0.67264887    -0.06100
C493        C  0.19288604  0.61308273  0.66273766    -0.00100
C494        C  0.17488985  0.57246418  0.63068151    -0.08600
C495        C  0.20338184  0.54928631  0.61293164     0.61800
H496        H  0.11596159  0.52247959  0.59002298     0.12500
H497        H  0.18262892  0.67008616  0.69636905     0.12500
C498        C  0.10260785  0.65650316  0.66145365     0.62000
F499        F  0.18299979  0.51834150  0.57439700    -0.23100
F500        F  0.20872841  0.51984189  0.64809956    -0.20500
F501        F  0.24600922  0.58790737  0.59917757    -0.20200
F502        F  0.07152349  0.63734007  0.69789302    -0.20200
F503        F  0.08219768  0.66172497  0.62037932    -0.20500
F504        F  0.13584981  0.70538840  0.67378614    -0.23200
C505        C  0.41409320  0.87840694  0.59538125    -0.06300
C506        C  0.46206443  0.90240631  0.59692550    -0.00100
C507        C  0.48233672  0.87306521  0.61388375    -0.08700
C508        C  0.45623484  0.82989769  0.64230707    -0.06100
C509        C  0.40945948  0.81247536  0.65070756    -0.00100
C510        C  0.38701777  0.83424156  0.62314098    -0.08600
C511        C  0.33529541  0.81177818  0.62299599     0.61800
H512        H  0.39810932  0.89620085  0.57485647     0.12500
H513        H  0.47320395  0.81042424  0.65873584     0.12500
C514        C  0.03082518  0.88399853  0.60047674     0.62000
F515        F  0.32056737  0.83261607  0.58711692    -0.23100
F516        F  0.32132016  0.82155874  0.66533229    -0.20500
F517        F  0.31439593  0.75947185  0.61625432    -0.20200
F518        F  0.05806274  0.89644437  0.64058490    -0.20200
F519        F  0.05085382  0.92355699  0.56776488    -0.20500
F520        F  0.02892573  0.84093580  0.58092242    -0.23200
C521        C  0.41157837  0.55310070  0.81436905    -0.06000
C522        C  0.39857349  0.58199551  0.84200866    -0.00100
C523        C  0.41087344  0.58882219  0.89038319    -0.08700
C524        C  0.43787823  0.56787944  0.90899025    -0.06100
C525        C  0.45385836  0.54222117  0.88020154    -0.00100
C526        C  0.43930604  0.53334731  0.83220870    -0.08600
C527        C  0.95244720  0.50254754  0.79962813     0.61800
H528        H  0.40208771  0.54877361  0.77731370     0.12500
H529        H  0.44870081  0.57369552  0.94562180     0.12500
C530        C  0.39558221  0.61794962  0.92190032     0.62000
F531        F  0.92393968  0.48554562  0.76050107    -0.23100
F532        F  0.95111211  0.46019642  0.82134466    -0.20500
F533        F  0.99624198  0.53525682  0.78402312    -0.20200
F534        F  0.34865043  0.59807603  0.91790897    -0.20200
F535        F  0.41711162  0.66913006  0.90875345    -0.20500
F536        F  0.40607541  0.61443140  0.96879117    -0.23200
C537        C  0.16018905  0.54705756  0.82493085    -0.06000
C538        C  0.19631998  0.59089310  0.84455614    -0.00100
C539        C  0.18793344  0.61395189  0.88323774    -0.08700
C540        C  0.14313699  0.59195445  0.90087011    -0.06100
C541        C  0.10623166  0.54681676  0.88213896    -0.00100
C542        C  0.11483512  0.52687311  0.84026579    -0.08600
C543        C  0.07889405  0.48752779  0.80752642     0.61800
H544        H  0.16691903  0.53112476  0.79391957     0.12500
H545        H  0.13726274  0.61174565  0.92912999     0.12500
C546        C  0.22477550  0.66134383  0.90736390     0.62000
F547        F  0.08965401  0.50361186  0.76105704    -0.23100
F548        F  0.07840659  0.44117934  0.81340591    -0.20500
F549        F  0.03687055  0.98531000  0.80511772    -0.20200
F550        F  0.21677252  0.70200135  0.89822277    -0.20200
F551        F  0.26851558  0.67467219  0.89280615    -0.20500
F552        F  0.22311530  0.65255930  0.95556816    -0.23200
C553        C  0.43704410  0.81198194  0.88596238    -0.06000
C554        C  0.39868234  0.80748003  0.86076910    -0.00100
C555        C  0.38319191  0.84344039  0.86898218    -0.08700
C556        C  0.41063483  0.88629191  0.89690334    -0.06100
C557        C  0.45307809  0.89484361  0.91507645    -0.00100
C558        C  0.46387098  0.85449857  0.91406000    -0.08600
C559        C  0.00608568  0.85614567  0.94028204     0.61800
H560        H  0.44719383  0.78277734  0.88245049     0.12500
H561        H  0.40164828  0.91638732  0.89982711     0.12500
C562        C  0.34008233  0.83930483  0.84589885     0.62000
F563        F  0.99029965  0.81236651  0.96814218    -0.23100
F564        F  0.02746088  0.89785683  0.96948885    -0.20500
F565        F  0.03782615  0.85712127  0.90900988    -0.20200
F566        F  0.30237719  0.79432011  0.86034642    -0.20200
F567        F  0.34368103  0.84002040  0.79734155    -0.20500
F568        F  0.33265198  0.87935301  0.85801222    -0.23200
Fe569      Fe  0.90368343  0.20023807  0.25933485     1.65800
Fe570      Fe  0.80540245  0.20734524  0.25322954     1.73200
Fe571      Fe  0.80213247  0.09226790  0.25255161     1.54400
O572        O  0.83659033  0.09146608  0.19294139    -0.81900
O573        O  0.75327177  0.15529270  0.29691888    -0.80200
O574        O  0.90776956  0.14875985  0.21419295    -0.84400
O575        O  0.90237021  0.15733395  0.31756686    -0.79300
O576        O  0.74958113  0.09105956  0.21150453    -0.81100
O577        O  0.83925535  0.24715131  0.31238518    -0.83800
C578        C  0.88367791  0.10899150  0.31877016     0.97000
C579        C  0.87987094  0.11220691  0.18840199     1.04400
O580        O  0.83701121  0.16679636  0.25500564    -1.12800
O581        O  0.85365176  0.26329042  0.20816029    -0.75200
O582        O  0.91063529  0.24534672  0.20146628    -0.78700
O583        O  0.84860482  0.08101143  0.29387120    -0.79400
C584        C  0.89039845  0.27021608  0.18868198     0.95900
O585        O  0.90882162  0.25621301  0.30481576    -0.77400
O586        O  0.76702045  0.17118590  0.19467849    -0.82600
C587        C  0.74378254  0.11318645  0.31802671     0.98500
C588        C  0.74113881  0.12340896  0.19031665     1.04400
O589        O  0.76583444  0.08905750  0.31158881    -0.78200
C590        C  0.88097696  0.26740433  0.32450274     1.02700
C591        C  0.55783575  0.04022403  0.10545254     0.86200
C592        C  0.52775702  0.48839514  0.11654689    -0.54000
C593        C  0.98891932  0.45866227  0.09166420     0.09200
C594        C  0.97235669  0.49082963  0.06201166     0.20100
C595        C  0.56108349  0.05107848  0.05266774    -0.54700
C596        C  0.01408805  0.52538860  0.03087272     0.09300
C597        C  0.52174208  0.05330617  0.12267477    -0.54300
C598        C  0.98086775  0.02980914  0.09877434     0.09800
H599        H  0.54208958  0.47263439  0.14224419     0.14300
H600        H  0.94040655  0.46821462  0.04160448     0.00100
H601        H  0.59404186  0.07659805  0.03736473     0.14600
H602        H  0.52675494  0.07792406  0.15208431     0.14400
C603        C  0.56335405  0.01975306  0.40654740     0.86200
C604        C  0.53581646  0.04245554  0.38215886    -0.54000
C605        C  0.99398912  0.02678280  0.40076422     0.09200
C606        C  0.97610627  0.49005420  0.44272713     0.20100
C607        C  0.56427166  0.03246608  0.45881952    -0.54700
C608        C  0.01781602  0.52262279  0.47476862     0.09300
C609        C  0.52850631  0.46938464  0.40105452    -0.54300
C610        C  0.98625691  0.44860773  0.42330100     0.09800
H611        H  0.54890466  0.06915459  0.35256346     0.14300
H612        H  0.94246312  0.47430355  0.46027880     0.00100
H613        H  0.59562402  0.04711544  0.47929105     0.14600
H614        H  0.54053852  0.44586438  0.38453289     0.14400
C615        C  0.88597652  0.03770763  0.16389288    -0.06000
C616        C  0.89898805  0.08930141  0.15609068    -0.00100
C617        C  0.93341176  0.11814567  0.12265747    -0.08700
C618        C  0.95509722  0.09435906  0.09964665    -0.06100
C619        C  0.94477618  0.04367988  0.11039586    -0.00100
C620        C  0.90887155  0.01457330  0.14256710    -0.08600
C621        C  0.39255504  0.95924748  0.15224506     0.61800
H622        H  0.85908795  0.01624740  0.18912038     0.12500
H623        H  0.98324795  0.11665380  0.07596598     0.12500
C624        C  0.94838434  0.17416031  0.11255355     0.62000
F625        F  0.36229992  0.94095380  0.18957299    -0.23100
F626        F  0.42899658  0.95114042  0.16350657    -0.20500
F627        F  0.86983648  0.93108852  0.11508644    -0.20200
F628        F  0.97188269  0.20324667  0.15105335    -0.20200
F629        F  0.91046137  0.18021924  0.10323026    -0.20500
F630        F  0.97699485  0.19260600  0.07393507    -0.23200
C631        C  0.63165154  0.03941591  0.12203141    -0.06000
C632        C  0.60651568  0.06593631  0.12727616    -0.00100
C633        C  0.63119487  0.11732181  0.14387763    -0.08700
C634        C  0.67507477  0.13429019  0.16401416    -0.06100
C635        C  0.69745644  0.10477077  0.16340163    -0.00100
C636        C  0.67628118  0.05751775  0.13973777    -0.08600
C637        C  0.70061340  0.02643983  0.13198995     0.61800
H638        H  0.61613229  0.00370784  0.10328051     0.12500
H639        H  0.69215917  0.17128339  0.18084499     0.12500
C640        C  0.61447311  0.15645465  0.13951735     0.62000
F641        F  0.67802208  0.98849238  0.09901387    -0.23100
F642        F  0.70275434  0.00295527  0.17374796    -0.20500
F643        F  0.74446912  0.05810591  0.11564799    -0.20200
F644        F  0.58921792  0.15336813  0.17872044    -0.20200
F645        F  0.58878241  0.14976004  0.09894089    -0.20500
F646        F  0.65117212  0.20571366  0.13693404    -0.23200
C647        C  0.91553710  0.37507465  0.09561253    -0.06300
C648        C  0.96356623  0.40141209  0.09824658    -0.00100
C649        C  0.98548623  0.37421077  0.11652572    -0.08700
C650        C  0.96029465  0.33102734  0.14520716    -0.06100
C651        C  0.91288998  0.31081414  0.15167589    -0.00100
C652        C  0.88941599  0.32976931  0.12224641    -0.08600
C653        C  0.83752862  0.30275485  0.11860304     0.61800
H654        H  0.89842052  0.39150256  0.07496006     0.12500
H655        H  0.97832619  0.31351995  0.16305586     0.12500
C656        C  0.53410067  0.38724188  0.10369543     0.62000
F657        F  0.82286482  0.31995339  0.07978194    -0.23100
F658        F  0.81939131  0.31161831  0.15851034    -0.20500
F659        F  0.82070474  0.25061978  0.11375423    -0.20200
F660        F  0.56120939  0.40219944  0.14393438    -0.20200
F661        F  0.55312421  0.42557370  0.06970896    -0.20500
F662        F  0.53391342  0.34424766  0.08615315    -0.23200
C663        C  0.91884931  0.05427392  0.31581460    -0.06000
C664        C  0.90734252  0.08445397  0.34361535    -0.00100
C665        C  0.92178465  0.09300277  0.39135497    -0.08700
C666        C  0.94833603  0.07131951  0.40939041    -0.06100
C667        C  0.96198029  0.04348959  0.38057715    -0.00100
C668        C  0.94624997  0.03389013  0.33309940    -0.08600
C669        C  0.45879529  0.00381365  0.29891151     0.61800
H670        H  0.90822123  0.04907081  0.27907465     0.12500
H671        H  0.96035400  0.07780340  0.44563626     0.12500
C672        C  0.90903326  0.12442490  0.42291138     0.62000
F673        F  0.42601833  0.98171620  0.26379224    -0.23100
F674        F  0.46259317  0.96478644  0.32143476    -0.20500
F675        F  0.50003403  0.03713783  0.27806169    -0.20200
F676        F  0.86202713  0.10480867  0.42213979    -0.20200
F677        F  0.92995557  0.17481165  0.40730094    -0.20500
F678        F  0.92266495  0.12370083  0.46916750    -0.23200
C679        C  0.66635926  0.04269725  0.32717154    -0.06000
C680        C  0.70150685  0.08788073  0.34595606    -0.00100
C681        C  0.69211904  0.11069425  0.38415447    -0.08700
C682        C  0.64732924  0.08719922  0.40193553    -0.06100
C683        C  0.61125790  0.04084547  0.38397376    -0.00100
C684        C  0.62089170  0.02053537  0.34291086    -0.08600
C685        C  0.58543665  0.97828592  0.31204859     0.61800
H686        H  0.67413308  0.02662952  0.29696918     0.12500
H687        H  0.64068193  0.10697895  0.42964954     0.12500
C688        C  0.72776439  0.15900865  0.40817639     0.62000
F689        F  0.59865986  0.98670894  0.26522522    -0.23100
F690        F  0.58133292  0.93163282  0.32609135    -0.20500
F691        F  0.53128595  0.48314763  0.30690574    -0.20200
F692        F  0.71551430  0.19693646  0.40277465    -0.20200
F693        F  0.77140160  0.17723873  0.39069018    -0.20500
F694        F  0.72920104  0.14881236  0.45580028    -0.23200
C695        C  0.93707526  0.31169818  0.38829796    -0.06000
C696        C  0.89896863  0.30652432  0.36209770    -0.00100
C697        C  0.88252611  0.34178471  0.36954626    -0.08700
C698        C  0.90861390  0.38436721  0.39827289    -0.06100
C699        C  0.95113913  0.39394310  0.41707135    -0.00100
C700        C  0.96295405  0.35438194  0.41653229    -0.08600
C701        C  0.50611884  0.35763469  0.44221850     0.61800
H702        H  0.94800746  0.28309952  0.38522861     0.12500
H703        H  0.89881631  0.41383427  0.40094433     0.12500
C704        C  0.84022547  0.33763306  0.34444957     0.62000
F705        F  0.49224153  0.31317513  0.46869153    -0.23100
F706        F  0.52576742  0.39844915  0.47268459    -0.20500
F707        F  0.53870248  0.36178248  0.41038197    -0.20200
F708        F  0.80207202  0.29232389  0.35738210    -0.20200
F709        F  0.84591063  0.33913136  0.29613474    -0.20500
F710        F  0.83198148  0.37730384  0.35579254    -0.23200
Fe711      Fe  0.89945001  0.20070673  0.75482224     1.65800
Fe712      Fe  0.80325858  0.21208673  0.74818340     1.73200
Fe713      Fe  0.79607153  0.09484216  0.74786977     1.54400
O714        O  0.82964786  0.09291204  0.68834511    -0.81900
O715        O  0.75036231  0.16136032  0.79134095    -0.80200
O716        O  0.90165536  0.14903090  0.70839684    -0.84400
O717        O  0.89706593  0.15630949  0.81234852    -0.79300
O718        O  0.74470800  0.09541657  0.70677429    -0.81100
O719        O  0.83769447  0.25171219  0.80729976    -0.83800
C720        C  0.87631586  0.10789986  0.81447082     0.97000
C721        C  0.87267864  0.11289907  0.68287363     1.04400
O722        O  0.83287353  0.16939213  0.75045505    -1.12800
O723        O  0.85218665  0.26701283  0.70328627    -0.75200
O724        O  0.90809924  0.24728639  0.69770880    -0.78700
O725        O  0.84084103  0.08104522  0.78964941    -0.79400
C726        C  0.88884364  0.27302897  0.68446559     0.95900
O727        O  0.90594263  0.25661440  0.80139362    -0.77400
O728        O  0.76457396  0.17641301  0.68970811    -0.82600
C729        C  0.73878029  0.11849241  0.81187782     0.98500
C730        C  0.73746569  0.12883365  0.68613358     1.04400
O731        O  0.75973344  0.09296717  0.80635193    -0.78200
C732        C  0.87908020  0.26989690  0.82024705     1.02700
C733        C  0.55152358  0.04624651  0.60963501     0.86200
C734        C  0.53015176  0.48942663  0.61333821    -0.54000
C735        C  0.99119467  0.46098199  0.58834327     0.09200
C736        C  0.97532364  0.49436813  0.55945826     0.20100
C737        C  0.55621353  0.05520251  0.55630122    -0.54700
C738        C  0.01662311  0.52748732  0.52730578     0.09300
C739        C  0.51377077  0.05928572  0.62111952    -0.54300
C740        C  0.97348994  0.03100922  0.59677645     0.09800
H741        H  0.54367041  0.47283039  0.63907108     0.14300
H742        H  0.94264153  0.47265280  0.54004801     0.00100
H743        H  0.58896652  0.08182147  0.54100021     0.14600
H744        H  0.51645607  0.08785897  0.64509525     0.14400
C745        C  0.55828041  0.02719692  0.89817853     0.86200
C746        C  0.52616209  0.04550606  0.87733780    -0.54000
C747        C  0.98463045  0.02577000  0.89899872     0.09200
C748        C  0.97793379  0.48997030  0.94414671     0.20100
C749        C  0.56245390  0.04039145  0.95060894    -0.54700
C750        C  0.01807585  0.51997672  0.97885586     0.09300
C751        C  0.52971447  0.46656910  0.90615193    -0.54300
C752        C  0.98694676  0.44739041  0.92536425     0.09800
H753        H  0.53481545  0.07088438  0.84672268     0.14300
H754        H  0.94348074  0.47544225  0.95964097     0.00100
H755        H  0.59564539  0.05846959  0.96759535     0.14600
H756        H  0.54067879  0.44157592  0.89052196     0.14400
C757        C  0.87969876  0.03852270  0.66228476    -0.06000
C758        C  0.88996227  0.08843993  0.65047785    -0.00100
C759        C  0.92002877  0.11442153  0.61283938    -0.08700
C760        C  0.94168538  0.09019182  0.59039249    -0.06100
C761        C  0.93498508  0.04178323  0.60551837    -0.00100
C762        C  0.90209193  0.01488108  0.64116436    -0.08600
C763        C  0.38999464  0.96190842  0.65719500     0.61800
H764        H  0.85548927  0.01908402  0.69039726     0.12500
H765        H  0.96740682  0.11096266  0.56388774     0.12500
C766        C  0.92994537  0.16776592  0.59754807     0.62000
F767        F  0.36320523  0.94659483  0.69721341    -0.23100
F768        F  0.42855835  0.95740307  0.66699551    -0.20500
F769        F  0.86386149  0.92900590  0.62050004    -0.20200
F770        F  0.95387137  0.20226109  0.63270979    -0.20200
F771        F  0.88918225  0.16807725  0.58871119    -0.20500
F772        F  0.95583590  0.18386190  0.55691383    -0.23200
C773        C  0.62995520  0.05586373  0.61298853    -0.06000
C774        C  0.59995665  0.07163043  0.63262516    -0.00100
C775        C  0.61723616  0.10698151  0.67077398    -0.08700
C776        C  0.66379475  0.12755623  0.68367263    -0.06100
C777        C  0.69255946  0.11159544  0.66334337    -0.00100
C778        C  0.67545758  0.07457832  0.62795375    -0.08600
C779        C  0.70506871  0.05486058  0.60614565     0.61800
H780        H  0.61692905  0.02739729  0.58559580     0.12500
H781        H  0.67799659  0.15500595  0.71188583     0.12500
C782        C  0.58836434  0.12191867  0.70053008     0.62000
F783        F  0.68422602  0.02517533  0.56701637    -0.23100
F784        F  0.71321681  0.02511931  0.63879873    -0.20500
F785        F  0.74641219  0.09561869  0.59209886    -0.20200
F786        F  0.54899454  0.07860040  0.71482607    -0.20200
F787        F  0.57831214  0.15537411  0.67525322    -0.20500
F788        F  0.61108308  0.14672565  0.74128856    -0.23200
C789        C  0.91707151  0.37768303  0.59037690    -0.06300
C790        C  0.96502667  0.40361612  0.59448878    -0.00100
C791        C  0.98593889  0.37571354  0.61366801    -0.08700
C792        C  0.95982627  0.33295370  0.64240208    -0.06100
C793        C  0.91241178  0.31351258  0.64771022    -0.00100
C794        C  0.88994851  0.33277860  0.61715712    -0.08600
C795        C  0.83813810  0.30645225  0.61246380     0.61800
H796        H  0.90078481  0.39405064  0.56836534     0.12500
H797        H  0.97710157  0.31501661  0.66102148     0.12500
C798        C  0.53362992  0.38679849  0.60084431     0.62000
F799        F  0.82448116  0.32422693  0.57328229    -0.23100
F800        F  0.81948163  0.31543726  0.65189854    -0.20500
F801        F  0.82087693  0.25425773  0.60750033    -0.20200
F802        F  0.56071841  0.40136176  0.64110756    -0.20200
F803        F  0.55333562  0.42471057  0.56661336    -0.20500
F804        F  0.53226657  0.34303444  0.58369180    -0.23200
C805        C  0.90335141  0.04510175  0.81672957    -0.06000
C806        C  0.89732889  0.08146715  0.84143217    -0.00100
C807        C  0.91486638  0.09392695  0.88804245    -0.08700
C808        C  0.93952167  0.07054270  0.90752470    -0.06100
C809        C  0.94835351  0.03702576  0.88121860    -0.00100
C810        C  0.92879758  0.02289888  0.83539006    -0.08600
C811        C  0.43535905  0.98779550  0.80380109     0.61800
H812        H  0.88996395  0.03578100  0.78101656     0.12500
H813        H  0.95492361  0.08109426  0.94228984     0.12500
C814        C  0.90825711  0.13208790  0.91675271     0.62000
F815        F  0.39283333  0.95142269  0.78754726    -0.23100
F816        F  0.45533563  0.96209264  0.82582222    -0.20500
F817        F  0.46185019  0.01490745  0.76562727    -0.20200
F818        F  0.86226557  0.11821989  0.91762845    -0.20200
F819        F  0.93270794  0.18056312  0.89704321    -0.20500
F820        F  0.92333909  0.13403370  0.96284094    -0.23200
C821        C  0.66048723  0.04891485  0.81957874    -0.06000
C822        C  0.69549736  0.09451693  0.83798771    -0.00100
C823        C  0.68523244  0.12023324  0.87283800    -0.08700
C824        C  0.63993019  0.09866536  0.88865364    -0.06100
C825        C  0.60466388  0.05099311  0.87249637    -0.00100
C826        C  0.61467777  0.02878735  0.83331665    -0.08600
C827        C  0.57939028  0.98848080  0.80091469     0.61800
H828        H  0.66842070  0.03144675  0.79058795     0.12500
H829        H  0.63205512  0.11989887  0.91387150     0.12500
C830        C  0.72109503  0.17087926  0.89295176     0.62000
F831        F  0.59189230  0.00194670  0.75428395    -0.23100
F832        F  0.57726336  0.94170778  0.81010073    -0.20500
F833        F  0.53618789  0.48178368  0.81391087    -0.20200
F834        F  0.72215418  0.21051664  0.86599476    -0.20200
F835        F  0.76410512  0.17468651  0.89339452    -0.20500
F836        F  0.71079794  0.17583551  0.93896548    -0.23200
C837        C  0.93379889  0.31103178  0.88599988    -0.06000
C838        C  0.89777992  0.30891053  0.85800676    -0.00100
C839        C  0.88394902  0.34665764  0.86417857    -0.08700
C840        C  0.91001525  0.38773710  0.89452841    -0.06100
C841        C  0.95050201  0.39387018  0.91598810    -0.00100
C842        C  0.95980716  0.35235512  0.91572958    -0.08600
C843        C  0.49496704  0.35083398  0.94717931     0.61800
H844        H  0.94286018  0.28085985  0.88348510     0.12500
H845        H  0.90205630  0.41867836  0.89681124     0.12500
C846        C  0.84473378  0.34675706  0.83610144     0.62000
F847        F  0.47556666  0.30523457  0.97264690    -0.23100
F848        F  0.51390166  0.39039456  0.97902748    -0.20500
F849        F  0.52932268  0.35267816  0.91930127    -0.20200
F850        F  0.80405635  0.30352363  0.84734437    -0.20200
F851        F  0.85282438  0.34775772  0.78832290    -0.20500
F852        F  0.83960720  0.38898798  0.84566626    -0.23200
Fe853      Fe  0.89717039  0.69893198  0.25355846     1.65800
Fe854      Fe  0.80237303  0.71316409  0.24680415     1.73200
Fe855      Fe  0.79225319  0.59457701  0.24830280     1.54400
O856        O  0.82523209  0.58984747  0.18925512    -0.81900
O857        O  0.74847228  0.66380518  0.28978146    -0.80200
O858        O  0.89775470  0.64532631  0.20821028    -0.84400
O859        O  0.89431536  0.65530668  0.31204766    -0.79300
O860        O  0.74156267  0.59649765  0.20654329    -0.81100
O861        O  0.83751614  0.75250178  0.30577033    -0.83800
C862        C  0.87248430  0.60691253  0.31508578     0.97000
C863        C  0.86814575  0.60872714  0.18352192     1.04400
O864        O  0.83055451  0.66901291  0.24965289    -1.12800
O865        O  0.85201032  0.76674070  0.20153528    -0.75200
O866        O  0.90623209  0.74455922  0.19529239    -0.78700
O867        O  0.83639457  0.58028362  0.29092707    -0.79400
C868        C  0.88771716  0.77105481  0.18186479     0.95900
O869        O  0.90542071  0.75653346  0.29921133    -0.77400
O870        O  0.76305255  0.67780341  0.18859553    -0.82600
C871        C  0.73566248  0.62094251  0.31079972     0.98500
C872        C  0.73506607  0.63039596  0.18559629     1.04400
O873        O  0.75611793  0.59470770  0.30641696    -0.78200
C874        C  0.87901538  0.77039478  0.31823437     1.02700
C875        C  0.54852891  0.54649146  0.10983538     0.86200
C876        C  0.53288945  0.98159280  0.11086889    -0.54000
C877        C  0.99338554  0.95620788  0.08490228     0.09200
C878        C  0.97948247  0.99320934  0.05932154     0.20100
C879        C  0.55211725  0.55643227  0.05658736    -0.54700
C880        C  0.02101211  0.02616482  0.02716636     0.09300
C881        C  0.50901822  0.55617811  0.12276373    -0.54300
C882        C  0.96895686  0.52742969  0.09816817     0.09800
H883        H  0.54468422  0.96237505  0.13572534     0.14300
H884        H  0.94638581  0.97426834  0.04011145     0.00100
H885        H  0.58404785  0.58501465  0.04112826     0.14600
H886        H  0.51038628  0.58352005  0.14750850     0.14400
C887        C  0.55486434  0.52812773  0.39862579     0.86200
C888        C  0.52139546  0.54437237  0.37732543    -0.54000
C889        C  0.98064292  0.52442167  0.39947585     0.09200
C890        C  0.98271673  0.99008073  0.44350526     0.20100
C891        C  0.55862949  0.54190390  0.45095879    -0.54700
C892        C  0.02261889  0.01834437  0.47877078     0.09300
C893        C  0.53174633  0.96141453  0.40723369    -0.54300
C894        C  0.98924952  0.94565307  0.42523520     0.09800
H895        H  0.52939151  0.56948523  0.34658387     0.14300
H896        H  0.94824779  0.97751340  0.45821961     0.00100
H897        H  0.59161223  0.56064137  0.46833687     0.14600
H898        H  0.54126106  0.93473270  0.39293676     0.14400
C899        C  0.87477369  0.53343589  0.16355593    -0.06000
C900        C  0.88461210  0.58322826  0.15117237    -0.00100
C901        C  0.91364883  0.60842919  0.11257593    -0.08700
C902        C  0.93502485  0.58402985  0.09004660    -0.06100
C903        C  0.92943305  0.53645997  0.10615688    -0.00100
C904        C  0.89699277  0.50961815  0.14211620    -0.08600
C905        C  0.38667122  0.45601448  0.15930298     0.61800
H906        H  0.85130579  0.51441337  0.19232336     0.12500
H907        H  0.96020265  0.60443584  0.06296589     0.12500
C908        C  0.92342075  0.66152308  0.09661621     0.62000
F909        F  0.35877685  0.43947807  0.19848968    -0.23100
F910        F  0.42595686  0.45332377  0.17023683    -0.20500
F911        F  0.86152636  0.42323884  0.12146438    -0.20200
F912        F  0.94882755  0.69672255  0.13073950    -0.20200
F913        F  0.88262436  0.66213837  0.08915809    -0.20500
F914        F  0.94785888  0.67639674  0.05500183    -0.23200
C915        C  0.62849273  0.56036486  0.11060670    -0.06000
C916        C  0.59741124  0.57347048  0.13204647    -0.00100
C917        C  0.61406138  0.60746261  0.17124711    -0.08700
C918        C  0.66049382  0.62761770  0.18490295    -0.06100
C919        C  0.69017903  0.61399974  0.16287640    -0.00100
C920        C  0.67424109  0.57999531  0.12509891    -0.08600
C921        C  0.70574183  0.56517899  0.09983850     0.61800
H922        H  0.61623013  0.53343381  0.08192969     0.12500
H923        H  0.67400790  0.65311413  0.21461155     0.12500
C924        C  0.58460614  0.62182534  0.20068354     0.62000
F925        F  0.68478005  0.53561125  0.06068694    -0.23100
F926        F  0.71862888  0.53735046  0.12998412    -0.20500
F927        F  0.74446397  0.60894357  0.08494222    -0.20200
F928        F  0.54634680  0.57804300  0.21633373    -0.20200
F929        F  0.57257906  0.65307727  0.17440618    -0.20500
F930        F  0.60750728  0.64883699  0.24049059    -0.23200
C931        C  0.91696639  0.87658876  0.08810696    -0.06300
C932        C  0.96479530  0.89891064  0.08924517    -0.00100
C933        C  0.98367265  0.86774988  0.10529148    -0.08700
C934        C  0.95694656  0.82518591  0.13411404    -0.06100
C935        C  0.91084750  0.81019281  0.14366531    -0.00100
C936        C  0.88924250  0.83296923  0.11612359    -0.08600
C937        C  0.83777692  0.81235771  0.11640195     0.61800
H938        H  0.90167531  0.89538035  0.06794049     0.12500
H939        H  0.97297472  0.80449079  0.15012557     0.12500
C940        C  0.53057433  0.87643532  0.09201468     0.62000
F941        F  0.82368317  0.83321310  0.07997545    -0.23100
F942        F  0.82492945  0.82417206  0.15842438    -0.20500
F943        F  0.81539699  0.75981045  0.11086547    -0.20200
F944        F  0.55820690  0.88657536  0.13164780    -0.20200
F945        F  0.55173350  0.91639680  0.05993673    -0.20500
F946        F  0.52611907  0.83272303  0.07122722    -0.23200
C947        C  0.90006399  0.54464449  0.31682498    -0.06000
C948        C  0.89308931  0.58001350  0.34201531    -0.00100
C949        C  0.90911672  0.59090336  0.38922069    -0.08700
C950        C  0.93420165  0.56789625  0.40854012    -0.06100
C951        C  0.94423102  0.53560661  0.38169176    -0.00100
C952        C  0.92517955  0.52209501  0.33562346    -0.08600
C953        C  0.42830383  0.48350414  0.30538920     0.61800
H954        H  0.88738091  0.53610953  0.28081604     0.12500
H955        H  0.94884860  0.57775557  0.44367027     0.12500
C956        C  0.90046050  0.62707286  0.41865466     0.62000
F957        F  0.38533497  0.44692159  0.29035952    -0.23100
F958        F  0.44864111  0.45820456  0.32749572    -0.20500
F959        F  0.45399947  0.50959823  0.26643946    -0.20200
F960        F  0.85447542  0.61328702  0.41658332    -0.20200
F961        F  0.92610964  0.67663985  0.40170734    -0.20500
F962        F  0.91231355  0.62584742  0.46551362    -0.23200
C963        C  0.65606300  0.55276842  0.31663913    -0.06000
C964        C  0.69151204  0.59765071  0.33571323    -0.00100
C965        C  0.68178218  0.62244348  0.37187428    -0.08700
C966        C  0.63687192  0.59981976  0.38930785    -0.06100
C967        C  0.60117373  0.55269906  0.37246551    -0.00100
C968        C  0.61049620  0.53188281  0.33170099    -0.08600
C969        C  0.57485985  0.49098265  0.29996013     0.61800
H970        H  0.66355872  0.53599369  0.28677356     0.12500
H971        H  0.62939972  0.62014573  0.41574275     0.12500
C972        C  0.71886564  0.67209629  0.39251790     0.62000
F973        F  0.58500193  0.50579079  0.25315621    -0.23100
F974        F  0.57559021  0.44541506  0.30708866    -0.20500
F975        F  0.54346406  0.97628812  0.31320373    -0.20200
F976        F  0.73220343  0.71116688  0.35936877    -0.20200
F977        F  0.75630239  0.66648557  0.40574411    -0.20500
F978        F  0.70388150  0.68607578  0.43193086    -0.23200
C979        C  0.93127397  0.80902644  0.38652513    -0.06000
C980        C  0.89814550  0.80969026  0.35568509    -0.00100
C981        C  0.88695870  0.84984316  0.35931093    -0.08700
C982        C  0.91300449  0.89042815  0.39017161    -0.06100
C983        C  0.95093468  0.89340754  0.41490363    -0.00100
C984        C  0.95687470  0.84960895  0.41722071    -0.08600
C985        C  0.48976147  0.84424544  0.45079946     0.61800
H986        H  0.93799795  0.77697343  0.38596419     0.12500
H987        H  0.90721041  0.92305100  0.39081193     0.12500
C988        C  0.85060246  0.85258329  0.32819003     0.62000
F989        F  0.46658294  0.79949800  0.47706705    -0.23100
F990        F  0.50986736  0.88442676  0.48188434    -0.20500
F991        F  0.52366686  0.84192758  0.42540417    -0.20200
F992        F  0.80804849  0.81174225  0.33853894    -0.20200
F993        F  0.86038360  0.85134224  0.28119301    -0.20500
F994        F  0.84837072  0.89711088  0.33496538    -0.23200
Fe995      Fe  0.89899727  0.69845476  0.75621198     1.65800
Fe996      Fe  0.80307720  0.71010113  0.75374400     1.73200
Fe997      Fe  0.79537789  0.59283428  0.74974061     1.54400
O998        O  0.82849564  0.59095576  0.68967559    -0.81900
O999        O  0.75063707  0.65879686  0.79757957    -0.80200
O1000       O  0.90049137  0.64586310  0.71046647    -0.84400
O1001       O  0.89672939  0.65469785  0.81424608    -0.79300
O1002       O  0.74386489  0.59479523  0.70881497    -0.81100
O1003       O  0.83874351  0.74774746  0.81300439    -0.83800
C1004       C  0.87607785  0.60624020  0.81614677     0.97000
C1005       C  0.87150432  0.61017479  0.68461348     1.04400
O1006       O  0.83234271  0.66722625  0.75310943    -1.12800
O1007       O  0.85187622  0.76561235  0.70853031    -0.75200
O1008       O  0.90624566  0.74408703  0.69851532    -0.78700
O1009       O  0.84076684  0.57919352  0.79103354    -0.79400
C1010       C  0.88737571  0.77089303  0.68740056     0.95900
O1011       O  0.90745463  0.75576557  0.80201252    -0.77400
O1012       O  0.76293647  0.67624839  0.69554738    -0.82600
C1013       C  0.73945198  0.61547291  0.81708302     0.98500
C1014       C  0.73644717  0.62885756  0.68944152     1.04400
O1015       O  0.75974900  0.58980797  0.80907981    -0.78200
C1016       C  0.88084754  0.76765578  0.82332491     1.02700
C1017       C  0.55301136  0.54768383  0.60565236     0.86200
C1018       C  0.52824396  0.98794373  0.61714508    -0.54000
C1019       C  0.98941392  0.95891405  0.59100433     0.09200
C1020       C  0.97526932  0.99295716  0.56098711     0.20100
C1021       C  0.55610776  0.55622816  0.55244493    -0.54700
C1022       C  0.01806049  0.02545418  0.53032296     0.09300
C1023       C  0.51509613  0.55911136  0.62042948    -0.54300
C1024       C  0.97411666  0.53208072  0.59584238     0.09800
H1025       H  0.54131844  0.97091605  0.64299309     0.14300
H1026       H  0.94327672  0.97162837  0.54026394     0.00100
H1027       H  0.58862185  0.58266232  0.53675484     0.14600
H1028       H  0.51790844  0.58423227  0.64840817     0.14400
C1029       C  0.55941064  0.52515671  0.90577316     0.86200
C1030       C  0.53025520  0.54622344  0.88225095    -0.54000
C1031       C  0.98672747  0.52630889  0.90129854     0.09200
C1032       C  0.97995171  0.99085123  0.94194916     0.20100
C1033       C  0.56026730  0.53719643  0.95815906    -0.54700
C1034       C  0.02178302  0.02284752  0.97421710     0.09300
C1035       C  0.53036500  0.96847049  0.89984376    -0.54300
C1036       C  0.98984220  0.94952036  0.92168790     0.09800
H1037       H  0.54283298  0.57398813  0.85346812     0.14300
H1038       H  0.94635254  0.97499996  0.95962234     0.00100
H1039       H  0.59166895  0.55226630  0.97853716     0.14600
H1040       H  0.54133601  0.94399837  0.88337120     0.14400
C1041       C  0.87789969  0.53576280  0.66060005    -0.06000
C1042       C  0.88896508  0.58657117  0.65132391    -0.00100
C1043       C  0.92050205  0.61459382  0.61532055    -0.08700
C1044       C  0.94286998  0.59165039  0.59227991    -0.06100
C1045       C  0.93557869  0.54251595  0.60525514    -0.00100
C1046       C  0.90100875  0.51325186  0.63864620    -0.08600
C1047       C  0.38583101  0.45850855  0.64804973     0.61800
H1048       H  0.85272023  0.51474732  0.68750832     0.12500
H1049       H  0.96968538  0.61394602  0.56721982     0.12500
C1050       C  0.93203563  0.66918286  0.60293658     0.62000
F1051       F  0.35465086  0.43886883  0.68451346    -0.23100
F1052       F  0.42306644  0.45244458  0.66075143    -0.20500
F1053       F  0.86533903  0.42881150  0.61260308    -0.20200
F1054       F  0.95751643  0.70135611  0.63900116    -0.20200
F1055       F  0.89215180  0.67202399  0.59637744    -0.20500
F1056       F  0.95720971  0.68628077  0.56188221    -0.23200
C1057       C  0.62951216  0.55236304  0.61539575    -0.06000
C1058       C  0.60209372  0.57484986  0.62695063    -0.00100
C1059       C  0.62416525  0.62242156  0.65133535    -0.08700
C1060       C  0.66833923  0.63869990  0.67062077    -0.06100
C1061       C  0.69304280  0.61262167  0.66274322    -0.00100
C1062       C  0.67444058  0.57053893  0.63221799    -0.08600
C1063       C  0.70219651  0.54579640  0.61602718     0.61800
H1064       H  0.61516970  0.51949548  0.59260800     0.12500
H1065       H  0.68381039  0.67213164  0.69281997     0.12500
C1066       C  0.60478453  0.65888973  0.65518383     0.62000
F1067       F  0.68158796  0.51394149  0.57808828    -0.23100
F1068       F  0.70660300  0.51681486  0.65228537    -0.20500
F1069       F  0.74522157  0.58327329  0.60200758    -0.20200
F1070       F  0.57510609  0.64449574  0.69278992    -0.20200
F1071       F  0.58304754  0.66034923  0.61367527    -0.20500
F1072       F  0.63924689  0.70852345  0.66305752    -0.23200
C1073       C  0.91434405  0.87758768  0.59528642    -0.06300
C1074       C  0.96230298  0.90165084  0.59659935    -0.00100
C1075       C  0.98274050  0.87235412  0.61323167    -0.08700
C1076       C  0.95678663  0.82904849  0.64158968    -0.06100
C1077       C  0.91006068  0.81162712  0.65034987    -0.00100
C1078       C  0.88745778  0.83339010  0.62305371    -0.08600
C1079       C  0.83576109  0.81101621  0.62335073     0.61800
H1080       H  0.89824728  0.89541784  0.57501681     0.12500
H1081       H  0.97384839  0.80956238  0.65778151     0.12500
C1082       C  0.53037165  0.88442156  0.60131841     0.62000
F1083       F  0.82078067  0.83153685  0.58742980    -0.23100
F1084       F  0.82223053  0.82130317  0.66571895    -0.20500
F1085       F  0.81471237  0.75863040  0.61705048    -0.20200
F1086       F  0.55763826  0.89740188  0.64142563    -0.20200
F1087       F  0.55037037  0.92347988  0.56812883    -0.20500
F1088       F  0.52839237  0.84103065  0.58243733    -0.23200
C1089       C  0.90982206  0.55007692  0.81525036    -0.06000
C1090       C  0.89786704  0.58029557  0.84229076    -0.00100
C1091       C  0.91092016  0.58827611  0.89045812    -0.08700
C1092       C  0.93752197  0.56697967  0.90942013    -0.06100
C1093       C  0.95270094  0.54023474  0.88104113    -0.00100
C1094       C  0.93761417  0.53049822  0.83327034    -0.08600
C1095       C  0.45405598  0.50549714  0.79834565     0.61800
H1096       H  0.89983431  0.54495907  0.77833609     0.12500
H1097       H  0.94893016  0.57364696  0.94585351     0.12500
C1098       C  0.89716133  0.61931654  0.92131117     0.62000
F1099       F  0.42540472  0.48857934  0.75926586    -0.23100
F1100       F  0.45268744  0.46304892  0.81989848    -0.20500
F1101       F  0.49784748  0.53820964  0.78270218    -0.20200
F1102       F  0.85044067  0.60114660  0.91747644    -0.20200
F1103       F  0.92003996  0.67022026  0.90727539    -0.20500
F1104       F  0.90762035  0.61626835  0.96831015    -0.23200
C1105       C  0.66071687  0.54776692  0.82455897    -0.06000
C1106       C  0.69713500  0.59076777  0.84490692    -0.00100
C1107       C  0.68912109  0.61297707  0.88445941    -0.08700
C1108       C  0.64426983  0.59126735  0.90194273    -0.06100
C1109       C  0.60691694  0.54708771  0.88228478    -0.00100
C1110       C  0.61538741  0.52775216  0.83991593    -0.08600
C1111       C  0.57943245  0.48898784  0.80682175     0.61800
H1112       H  0.66728658  0.53233367  0.79309885     0.12500
H1113       H  0.63879846  0.61069403  0.93078483     0.12500
C1114       C  0.72645291  0.65889399  0.90992172     0.62000
F1115       F  0.59020404  0.50583951  0.76052661    -0.23100
F1116       F  0.57894642  0.44256772  0.81187894    -0.20500
F1117       F  0.53659386  0.98386582  0.80514171    -0.20200
F1118       F  0.71881806  0.70020708  0.90378374    -0.20200
F1119       F  0.76996841  0.67269152  0.89426613    -0.20500
F1120       F  0.72511983  0.64749914  0.95760220    -0.23200
C1121       C  0.93950888  0.81256864  0.88514006    -0.06000
C1122       C  0.90060931  0.80730702  0.86046442    -0.00100
C1123       C  0.88460220  0.84275687  0.86907136    -0.08700
C1124       C  0.91178427  0.88565026  0.89704633    -0.06100
C1125       C  0.95458238  0.89496621  0.91477172    -0.00100
C1126       C  0.96612810  0.85520956  0.91324555    -0.08600
C1127       C  0.50326416  0.85468071  0.94157062     0.61800
H1128       H  0.95017204  0.78383133  0.88130368     0.12500
H1129       H  0.90225415  0.91527124  0.90031870     0.12500
C1130       C  0.84121082  0.83816531  0.84625281     0.62000
F1131       F  0.48658408  0.81113734  0.96986034    -0.23100
F1132       F  0.52519249  0.89664380  0.97039729    -0.20500
F1133       F  0.53475186  0.85441873  0.91069735    -0.20200
F1134       F  0.80377092  0.79296457  0.86077388    -0.20200
F1135       F  0.84465585  0.83901529  0.79766772    -0.20500
F1136       F  0.83341540  0.87790534  0.85853535    -0.23200
loop_ 
_geom_bond_atom_site_label_1 
_geom_bond_atom_site_label_2 
_geom_bond_distance 
_geom_bond_site_symmetry_2 
_ccdc_geom_bond_type 
Fe1          O17   2.070       .  S
Fe1           O7   2.055       .  S
Fe1          O14   2.044       .  S
Fe1           O6   2.076       .  S
Fe1          O12   1.952       .  S
Fe2           O5   2.088       .  S
Fe2           O9   2.057       .  S
Fe2          O13   2.100       .  S
Fe2          O18   2.057       .  S
Fe2          O12   1.953       .  S
Fe3          O21   2.058       .  S
Fe3           O8   2.074       .  S
Fe3          O15   2.079       .  S
Fe3           O4   2.068       .  S
Fe3          O12   1.950       .  S
O4           C11   1.273       .  A
O5           C19   1.277       .  A
O6           C11   1.271       .  A
O7           C10   1.264       .  A
O8           C20   1.268       .  A
O9           C22   1.264       .  A
C10          O15   1.271       .  A
C10          C96   1.475       .  S
C11          C48   1.477       .  S
O13          C16   1.276       .  A
O14          C16   1.267       .  A
C16          C83   1.494       .  S
O17          C22   1.270       .  A
O18          C20   1.267       .  A
C19          O21   1.272       .  A
C19         C112   1.475       .  S
C20          C67   1.488       .  S
C22         C128   1.489       .  S
C23          C29   1.526       .  S
C23          C27   1.520       .  S
C23         C308   1.537   1_545  S
C23          C64   1.546       .  S
C24         C307   1.534       .  S
C24          H31   1.083       .  S
C24         C593   1.369   1_455  D
C25          C26   1.550       .  S
C25         C592   1.369       .  D
C25          C80   1.505       .  S
C26          C28   1.550       .  S
C26         C314   1.561       .  S
C26          H32   1.107       .  S
C27          H33   1.081       .  S
C27         C880   1.369       .  D
C28         C879   1.365       .  D
C28         C182   1.504   1_554  S
C29          H34   1.080       .  S
C29         C598   1.368   1_455  D
C30         C310   1.565   1_545  S
C30         C597   1.368       .  D
C30          C51   1.495       .  S
C35          C36   1.531       .  S
C35          C39   1.534       .  S
C35         C325   1.538   1_545  S
C35         C115   1.552       .  S
C36          H43   1.085       .  S
C36         C605   1.362   1_455  D
C37         C322   1.540   1_545  S
C37         C604   1.362       .  D
C37          C99   1.482       .  S
C38          C42   1.548       .  S
C38          C40   1.545       .  S
C38         C321   1.544       .  S
C38          H44   1.108       .  S
C39          H45   1.081       .  S
C39         C892   1.375       .  D
C40         C891   1.374       .  D
C40         C170   1.505       .  S
C41         C319   1.536       .  S
C41          H46   1.081       .  S
C41         C610   1.371   1_455  D
C42         C609   1.371       .  D
C42         C131   1.490       .  S
C47          C48   1.396       .  A
C47          C52   1.404       .  A
C47          H54   1.084       .  S
C48          C49   1.416       .  A
C49          C56   1.518       .  S
C49          C50   1.411       .  A
C50          C51   1.408       .  A
C50          H55   1.084       .  S
C51          C52   1.421       .  A
C52         C621   1.508   1_545  S
C53         C620   1.508   1_565  S
C53          F57   1.385       .  S
C53          F58   1.382       .  S
C53         F627   1.374       .  S
C56          F60   1.382       .  S
C56          F61   1.383       .  S
C56          F62   1.385       .  S
F59         C621   1.374       .  S
C63          C64   1.417       .  A
C63          C68   1.403       .  A
C63          H70   1.080       .  S
C64          C65   1.430       .  A
C65          C72   1.522       .  S
C65          C66   1.411       .  A
C66          C67   1.406       .  A
C66          H71   1.084       .  S
C67          C68   1.413       .  A
C68          C69   1.521       .  S
C69          F73   1.385   1_545  S
C69          F74   1.382       .  S
C69          F75   1.384       .  S
C72          F76   1.382       .  S
C72          F77   1.381       .  S
C72          F78   1.386       .  S
C79          C80   1.403       .  A
C79          C84   1.414       .  A
C79          H86   1.077       .  S
C80          C81   1.418       .  A
C81         C656   1.517       .  S
C81          C82   1.400       .  A
C82          C83   1.408       .  A
C82          H87   1.084       .  S
C83          C84   1.421       .  A
C84          C85   1.517       .  S
C85          F89   1.384       .  S
C85          F90   1.382       .  S
C85          F91   1.384       .  S
C88         C649   1.517   1_455  S
C88          F92   1.383       .  S
C88          F93   1.383       .  S
C88          F94   1.384       .  S
C95          C96   1.399       .  A
C95         C100   1.399       .  A
C95         H102   1.085       .  S
C96          C97   1.416       .  A
C97         C104   1.517       .  S
C97          C98   1.411       .  A
C98          C99   1.405       .  A
C98         H103   1.084       .  S
C99         C100   1.420       .  A
C100        C669   1.519       .  S
C101        C668   1.519       .  S
C101        F105   1.383   1_545  S
C101        F106   1.375   1_545  S
C101        F107   1.382   1_655  S
C104        F108   1.383       .  S
C104        F109   1.382       .  S
C104        F110   1.385       .  S
C111        C112   1.398       .  A
C111        C116   1.407       .  A
C111        H118   1.085       .  S
C112        C113   1.409       .  A
C113        C120   1.519       .  S
C113        C114   1.406       .  A
C114        C115   1.420       .  A
C114        H119   1.081       .  S
C115        C116   1.436       .  A
C116        C117   1.523   1_545  S
C117        F121   1.386       .  S
C117        F122   1.383       .  S
C117        F407   1.374       .  S
C120        F124   1.383       .  S
C120        F125   1.382       .  S
C120        F126   1.384       .  S
F123        C401   1.373       .  S
C127        C128   1.406       .  A
C127        C132   1.401       .  A
C127        H134   1.085       .  S
C128        C129   1.425       .  A
C129        C136   1.520       .  S
C129        C130   1.408       .  A
C130        C131   1.402       .  A
C130        H135   1.081       .  S
C131        C132   1.416       .  A
C132        C701   1.516       .  S
C133        C700   1.515   1_455  S
C133        F137   1.384   1_455  S
C133        F138   1.382       .  S
C133        F139   1.383       .  S
C136        F140   1.382       .  S
C136        F141   1.384       .  S
C136        F142   1.385       .  S
Fe143       O159   2.074       .  S
Fe143       O149   2.060       .  S
Fe143       O156   2.045       .  S
Fe143       O148   2.078       .  S
Fe143       O154   1.952       .  S
Fe144       O147   2.075       .  S
Fe144       O151   2.057       .  S
Fe144       O155   2.087       .  S
Fe144       O160   2.054       .  S
Fe144       O154   1.956       .  S
Fe145       O163   2.058       .  S
Fe145       O150   2.064       .  S
Fe145       O157   2.077       .  S
Fe145       O146   2.062       .  S
Fe145       O154   1.954       .  S
O146        C153   1.272       .  A
O147        C161   1.274       .  A
O148        C153   1.273       .  A
O149        C152   1.264       .  A
O150        C162   1.265       .  A
O151        C164   1.265       .  A
C152        O157   1.270       .  A
C152        C238   1.480       .  S
C153        C190   1.472       .  S
O155        C158   1.272       .  A
O156        C158   1.267       .  A
C158        C225   1.491       .  S
O159        C164   1.272       .  A
O160        C162   1.266       .  A
C161        O163   1.273       .  A
C161        C254   1.468       .  S
C162        C209   1.471       .  S
C164        C270   1.488       .  S
C165        C450   1.535   1_545  S
C165        C171   1.531       .  S
C165        C169   1.529       .  S
C165        C206   1.552       .  S
C166        C449   1.536       .  S
C166        H173   1.082       .  S
C166        C735   1.369   1_455  D
C167        C168   1.553       .  S
C167        C734   1.369       .  D
C167        C222   1.506       .  S
C168        C456   1.562       .  S
C168        C170   1.550       .  S
C168        H174   1.105       .  S
C169        H175   1.084       .  S
C169       C1022   1.365       .  D
C170       C1021   1.367       .  D
C171        H176   1.071       .  S
C171        C740   1.367   1_455  D
C172        C452   1.563   1_545  S
C172        C739   1.367       .  D
C172        C193   1.494       .  S
C177        C178   1.526       .  S
C177        C467   1.536   1_545  S
C177        C181   1.533       .  S
C177        C257   1.544       .  S
C178        H185   1.087       .  S
C178        C747   1.363   1_455  D
C179        C464   1.546   1_545  S
C179        C746   1.362       .  D
C179        C241   1.483       .  S
C180        C463   1.546       .  S
C180        C184   1.547       .  S
C180        C182   1.546       .  S
C180        H186   1.109       .  S
C181        H187   1.077       .  S
C181       C1034   1.373       .  D
C182       C1033   1.375       .  D
C183        C461   1.535       .  S
C183        H188   1.082       .  S
C183        C752   1.370   1_455  D
C184        C751   1.371       .  D
C184        C273   1.490       .  S
C189        C190   1.392       .  A
C189        C194   1.401       .  A
C189        H196   1.084       .  S
C190        C191   1.414       .  A
C191        C198   1.516       .  S
C191        C192   1.412       .  A
C192        C193   1.410       .  A
C192        H197   1.084       .  S
C193        C194   1.423       .  A
C194        C763   1.508   1_545  S
C195        C762   1.508   1_565  S
C195        F199   1.384       .  S
C195        F200   1.381       .  S
C195        F769   1.374       .  S
C198        F202   1.382       .  S
C198        F203   1.383       .  S
C198        F204   1.384       .  S
F201        C763   1.374       .  S
C205        C206   1.422       .  A
C205        C210   1.401       .  A
C205        H212   1.083       .  S
C206        C207   1.433       .  A
C207        C214   1.517       .  S
C207        C208   1.411       .  A
C208        C209   1.399       .  A
C208        H213   1.084       .  S
C209        C210   1.404       .  A
C210        C211   1.519       .  S
C211        F215   1.385       .  S
C211        F216   1.383       .  S
C211        F217   1.383       .  S
C214        F218   1.383       .  S
C214        F219   1.382       .  S
C214        F220   1.386       .  S
C221        C222   1.403       .  A
C221        C226   1.414       .  A
C221        H228   1.075       .  S
C222        C223   1.417       .  A
C223        C798   1.516       .  S
C223        C224   1.398       .  A
C224        C225   1.406       .  A
C224        H229   1.084       .  S
C225        C226   1.421       .  A
C226        C227   1.517       .  S
C227        F231   1.384       .  S
C227        F232   1.382       .  S
C227        F233   1.384       .  S
C230        C791   1.517   1_455  S
C230        F234   1.383       .  S
C230        F235   1.383       .  S
C230        F236   1.384       .  S
C237        C238   1.400       .  A
C237        C242   1.398       .  A
C237        H244   1.086       .  S
C238        C239   1.418       .  A
C239        C246   1.516       .  S
C239        C240   1.413       .  A
C240        C241   1.404       .  A
C240        H245   1.084       .  S
C241        C242   1.421       .  A
C242        C811   1.517   1_545  S
C243        C810   1.517   1_565  S
C243        F247   1.382       .  S
C243        F248   1.373       .  S
C243        F249   1.383   1_565  S
C246        F250   1.383       .  S
C246        F251   1.382       .  S
C246        F252   1.385       .  S
C253        C254   1.400       .  A
C253        C258   1.403       .  A
C253        H260   1.086       .  S
C254        C255   1.411       .  A
C255        C262   1.519       .  S
C255        C256   1.403       .  A
C256        C257   1.416       .  A
C256        H261   1.082       .  S
C257        C258   1.430       .  A
C258        C259   1.521   1_545  S
C259        F263   1.386   1_565  S
C259        F264   1.383       .  S
C259        F549   1.374       .  S
C262        F266   1.383       .  S
C262        F267   1.382       .  S
C262        F268   1.384       .  S
F265        C543   1.371       .  S
C269        C270   1.405       .  A
C269        C274   1.402       .  A
C269        H276   1.084       .  S
C270        C271   1.424       .  A
C271        C278   1.521       .  S
C271        C272   1.409       .  A
C272        C273   1.402       .  A
C272        H277   1.082       .  S
C273        C274   1.416       .  A
C274        C843   1.515       .  S
C275        C842   1.516       .  S
C275        F279   1.384       .  S
C275        F280   1.383   1_655  S
C275        F281   1.383   1_655  S
C278        F282   1.383       .  S
C278        F283   1.384       .  S
C278        F284   1.385       .  S
Fe285       O301   2.082       .  S
Fe285       O291   2.062       .  S
Fe285       O298   2.052       .  S
Fe285       O290   2.086       .  S
Fe285       O296   1.952       .  S
Fe286       O289   2.080       .  S
Fe286       O293   2.055       .  S
Fe286       O297   2.091       .  S
Fe286       O302   2.052       .  S
Fe286       O296   1.955       .  S
Fe287       O305   2.057       .  S
Fe287       O292   2.074       .  S
Fe287       O299   2.084       .  S
Fe287       O288   2.064       .  S
Fe287       O296   1.953       .  S
O288        C295   1.271       .  A
O289        C303   1.274       .  A
O290        C295   1.274       .  A
O291        C294   1.265       .  A
O292        C304   1.268       .  A
O293        C306   1.265       .  A
C294        O299   1.272       .  A
C294        C380   1.482       .  S
C295        C332   1.476       .  S
O297        C300   1.273       .  A
O298        C300   1.268       .  A
C300        C367   1.496       .  S
O301        C306   1.273       .  A
O302        C304   1.266       .  A
C303        O305   1.272       .  A
C303        C396   1.473       .  S
C304        C351   1.474       .  S
C306        C412   1.487       .  S
C307        C313   1.533       .  S
C307        C311   1.528       .  S
C307        C348   1.555       .  S
C308        H315   1.083       .  S
C308        C877   1.368   1_455  D
C309        C310   1.554       .  S
C309        C876   1.367       .  D
C309        C364   1.505       .  S
C310        C312   1.551   1_565  S
C310        H316   1.106       .  S
C311        H317   1.084       .  S
C311        C596   1.364       .  D
C312        C595   1.368       .  D
C312        C466   1.508   1_554  S
C313        H318   1.071       .  S
C313        C882   1.369   1_455  D
C314        C881   1.369       .  D
C314        C335   1.492       .  S
C319        C320   1.530       .  S
C319        C323   1.534       .  S
C319        C399   1.547       .  S
C320        H327   1.087       .  S
C320        C889   1.363   1_455  D
C321        C888   1.363       .  D
C321        C383   1.485       .  S
C322        C326   1.545       .  S
C322        C324   1.543   1_565  S
C322        H328   1.109       .  S
C323        H329   1.079       .  S
C323        C608   1.372       .  D
C324        C607   1.375       .  D
C324        C454   1.503       .  S
C325        H330   1.079       .  S
C325        C894   1.372   1_455  D
C326        C893   1.372       .  D
C326        C415   1.490       .  S
C331        C332   1.396       .  A
C331        C336   1.405       .  A
C331        H338   1.083       .  S
C332        C333   1.413       .  A
C333        C340   1.515       .  S
C333        C334   1.411       .  A
C334        C335   1.407       .  A
C334        H339   1.084       .  S
C335        C336   1.421       .  A
C336        C905   1.511       .  S
C337        C904   1.512       .  S
C337        F341   1.384       .  S
C337        F342   1.381       .  S
C337        F911   1.376       .  S
C340        F344   1.382       .  S
C340        F345   1.384       .  S
C340        F346   1.384       .  S
F343        C905   1.376       .  S
C347        C348   1.423       .  A
C347        C352   1.401       .  A
C347        H354   1.083       .  S
C348        C349   1.433       .  A
C349        C356   1.516       .  S
C349        C350   1.414       .  A
C350        C351   1.401       .  A
C350        H355   1.083       .  S
C351        C352   1.402       .  A
C352        C353   1.519       .  S
C353        F357   1.384       .  S
C353        F358   1.382       .  S
C353        F359   1.384       .  S
C356        F360   1.383       .  S
C356        F361   1.383       .  S
C356        F362   1.385       .  S
C363        C364   1.399       .  A
C363        C368   1.413       .  A
C363        H370   1.075       .  S
C364        C365   1.418       .  A
C365        C940   1.518       .  S
C365        C366   1.401       .  A
C366        C367   1.409       .  A
C366        H371   1.084       .  S
C367        C368   1.424       .  A
C368        C369   1.518       .  S
C369        F373   1.384       .  S
C369        F374   1.383       .  S
C369        F375   1.383       .  S
C372        C933   1.518   1_455  S
C372        F376   1.383       .  S
C372        F377   1.382       .  S
C372        F378   1.384       .  S
C379        C380   1.399       .  A
C379        C384   1.399       .  A
C379        H386   1.085       .  S
C380        C381   1.418       .  A
C381        C388   1.516       .  S
C381        C382   1.414       .  A
C382        C383   1.405       .  A
C382        H387   1.084       .  S
C383        C384   1.420       .  A
C384        C953   1.516       .  S
C385        C952   1.516       .  S
C385        F389   1.382       .  S
C385        F390   1.373       .  S
C385        F391   1.383       .  S
C388        F392   1.383       .  S
C388        F393   1.382       .  S
C388        F394   1.385       .  S
C395        C396   1.398       .  A
C395        C400   1.405       .  A
C395        H402   1.086       .  S
C396        C397   1.407       .  A
C397        C404   1.518       .  S
C397        C398   1.406       .  A
C398        C399   1.418       .  A
C398        H403   1.080       .  S
C399        C400   1.432       .  A
C400        C401   1.521       .  S
C401        F405   1.386       .  S
C401        F406   1.383       .  S
C404        F408   1.382       .  S
C404        F409   1.384       .  S
C404        F410   1.384       .  S
C411        C412   1.405       .  A
C411        C416   1.403       .  A
C411        H418   1.084       .  S
C412        C413   1.424       .  A
C413        C420   1.521       .  S
C413        C414   1.409       .  A
C414        C415   1.402       .  A
C414        H419   1.082       .  S
C415        C416   1.415       .  A
C416        C985   1.514       .  S
C417        C984   1.514       .  S
C417        F421   1.384       .  S
C417        F422   1.382   1_655  S
C417        F423   1.383   1_655  S
C420        F424   1.382       .  S
C420        F425   1.384       .  S
C420        F426   1.385       .  S
Fe427       O443   2.075       .  S
Fe427       O433   2.059       .  S
Fe427       O440   2.048       .  S
Fe427       O432   2.077       .  S
Fe427       O438   1.950       .  S
Fe428       O431   2.086       .  S
Fe428       O435   2.053       .  S
Fe428       O439   2.100       .  S
Fe428       O444   2.051       .  S
Fe428       O438   1.952       .  S
Fe429       O447   2.055       .  S
Fe429       O434   2.083       .  S
Fe429       O441   2.087       .  S
Fe429       O430   2.066       .  S
Fe429       O438   1.952       .  S
O430        C437   1.272       .  A
O431        C445   1.276       .  A
O432        C437   1.271       .  A
O433        C436   1.266       .  A
O434        C446   1.271       .  A
O435        C448   1.263       .  A
C436        O441   1.273       .  A
C436        C522   1.477       .  S
C437        C474   1.477       .  S
O439        C442   1.276       .  A
O440        C442   1.268       .  A
C442        C509   1.496       .  S
O443        C448   1.271       .  A
O444        C446   1.266       .  A
C445        O447   1.271       .  A
C445        C538   1.472       .  S
C446        C493   1.482       .  S
C448        C554   1.487       .  S
C449        C455   1.531       .  S
C449        C453   1.524       .  S
C449        C490   1.552       .  S
C450        H457   1.084       .  S
C450       C1019   1.369   1_455  D
C451        C452   1.548       .  S
C451       C1018   1.369       .  D
C451        C506   1.504       .  S
C452        C454   1.551   1_565  S
C452        H458   1.107       .  S
C453        H459   1.082       .  S
C453        C738   1.367       .  D
C454        C737   1.365       .  D
C455        H460   1.073       .  S
C455       C1024   1.368   1_455  D
C456       C1023   1.369       .  D
C456        C477   1.495       .  S
C461        C462   1.529       .  S
C461        C465   1.532       .  S
C461        C541   1.547       .  S
C462        H469   1.085       .  S
C462       C1031   1.362   1_455  D
C463       C1030   1.363       .  D
C463        C525   1.490       .  S
C464        C468   1.546       .  S
C464        C466   1.547   1_565  S
C464        H470   1.108       .  S
C465        H471   1.080       .  S
C465        C750   1.375       .  D
C466        C749   1.374       .  D
C467        H472   1.080       .  S
C467       C1036   1.371   1_455  D
C468       C1035   1.370       .  D
C468        C557   1.489       .  S
C473        C474   1.397       .  A
C473        C478   1.406       .  A
C473        H480   1.083       .  S
C474        C475   1.415       .  A
C475        C482   1.517       .  S
C475        C476   1.409       .  A
C476        C477   1.408       .  A
C476        H481   1.084       .  S
C477        C478   1.421       .  A
C478       C1047   1.510       .  S
C479       C1046   1.510       .  S
C479        F483   1.385       .  S
C479        F484   1.381       .  S
C479       F1053   1.376       .  S
C482        F486   1.382       .  S
C482        F487   1.384       .  S
C482        F488   1.385       .  S
F485       C1047   1.377       .  S
C489        C490   1.420       .  A
C489        C494   1.403       .  A
C489        H496   1.082       .  S
C490        C491   1.432       .  A
C491        C498   1.518       .  S
C491        C492   1.413       .  A
C492        C493   1.403       .  A
C492        H497   1.084       .  S
C493        C494   1.407       .  A
C494        C495   1.519       .  S
C495        F499   1.385       .  S
C495        F500   1.382       .  S
C495        F501   1.384       .  S
C498        F502   1.382       .  S
C498        F503   1.383       .  S
C498        F504   1.386       .  S
C505        C506   1.402       .  A
C505        C510   1.415       .  A
C505        H512   1.076       .  S
C506        C507   1.415       .  A
C507       C1082   1.517       .  S
C507        C508   1.401       .  A
C508        C509   1.409       .  A
C508        H513   1.084       .  S
C509        C510   1.423       .  A
C510        C511   1.519       .  S
C511        F515   1.385       .  S
C511        F516   1.383       .  S
C511        F517   1.383       .  S
C514       C1075   1.517   1_455  S
C514        F518   1.383       .  S
C514        F519   1.383       .  S
C514        F520   1.384       .  S
C521        C522   1.397       .  A
C521        C526   1.400       .  A
C521        H528   1.085       .  S
C522        C523   1.416       .  A
C523        C530   1.515       .  S
C523        C524   1.414       .  A
C524        C525   1.406       .  A
C524        H529   1.083       .  S
C525        C526   1.424       .  A
C526       C1095   1.518       .  S
C527       C1094   1.518       .  S
C527        F531   1.383       .  S
C527        F532   1.376       .  S
C527        F533   1.381       .  S
C530        F534   1.383       .  S
C530        F535   1.382       .  S
C530        F536   1.384       .  S
C537        C538   1.397       .  A
C537        C542   1.404       .  A
C537        H544   1.086       .  S
C538        C539   1.409       .  A
C539        C546   1.518       .  S
C539        C540   1.406       .  A
C540        C541   1.418       .  A
C540        H545   1.081       .  S
C541        C542   1.434       .  A
C542        C543   1.523       .  S
C543        F547   1.386       .  S
C543        F548   1.383       .  S
C546        F550   1.382       .  S
C546        F551   1.383       .  S
C546        F552   1.384       .  S
C553        C554   1.405       .  A
C553        C558   1.401       .  A
C553        H560   1.085       .  S
C554        C555   1.424       .  A
C555        C562   1.520       .  S
C555        C556   1.408       .  A
C556        C557   1.402       .  A
C556        H561   1.082       .  S
C557        C558   1.416       .  A
C558       C1127   1.515       .  S
C559       C1126   1.515   1_455  S
C559        F563   1.384   1_455  S
C559        F564   1.381       .  S
C559        F565   1.383       .  S
C562        F566   1.382       .  S
C562        F567   1.384       .  S
C562        F568   1.385       .  S
Fe569       O585   2.072       .  S
Fe569       O575   2.057       .  S
Fe569       O582   2.045       .  S
Fe569       O574   2.077       .  S
Fe569       O580   1.950       .  S
Fe570       O573   2.086       .  S
Fe570       O577   2.054       .  S
Fe570       O581   2.096       .  S
Fe570       O586   2.055       .  S
Fe570       O580   1.954       .  S
Fe571       O589   2.058       .  S
Fe571       O576   2.074       .  S
Fe571       O583   2.078       .  S
Fe571       O572   2.069       .  S
Fe571       O580   1.950       .  S
O572        C579   1.274       .  A
O573        C587   1.276       .  A
O574        C579   1.272       .  A
O575        C578   1.264       .  A
O576        C588   1.268       .  A
O577        C590   1.264       .  A
C578        O583   1.270       .  A
C578        C664   1.476       .  S
C579        C616   1.479       .  S
O581        C584   1.275       .  A
O582        C584   1.267       .  A
C584        C651   1.492       .  S
O585        C590   1.271       .  A
O586        C588   1.267       .  A
C587        O589   1.272       .  A
C587        C680   1.473       .  S
C588        C635   1.486       .  S
C590        C696   1.487       .  S
C591        C876   1.536   1_545  S
C591        C597   1.526       .  S
C591        C595   1.520       .  S
C591        C632   1.545       .  S
C592        C875   1.533       .  S
C592        H599   1.083       .  S
C593        C594   1.549       .  S
C593        C648   1.504       .  S
C594        C882   1.559       .  S
C594        C596   1.548   1_655  S
C594        H600   1.106       .  S
C595        H601   1.081       .  S
C596        C750   1.503   1_554  S
C597        H602   1.080       .  S
C598        C878   1.565   1_545  S
C598        C619   1.495       .  S
C603        C604   1.531       .  S
C603        C893   1.538   1_545  S
C603        C607   1.535       .  S
C603        C683   1.551       .  S
C604        H611   1.086       .  S
C605        C890   1.541   1_545  S
C605        C667   1.484       .  S
C606        C889   1.544       .  S
C606        C610   1.547       .  S
C606        C608   1.545   1_655  S
C606        H612   1.108       .  S
C607        H613   1.081       .  S
C608        C738   1.504       .  S
C609        C887   1.535       .  S
C609        H614   1.081       .  S
C610        C699   1.489       .  S
C615        C616   1.397       .  A
C615        C620   1.405       .  A
C615        H622   1.084       .  S
C616        C617   1.416       .  A
C617        C624   1.518       .  S
C617        C618   1.411       .  A
C618        C619   1.407       .  A
C618        H623   1.084       .  S
C619        C620   1.421       .  A
C621        F625   1.385       .  S
C621        F626   1.382       .  S
C624        F628   1.382       .  S
C624        F629   1.383       .  S
C624        F630   1.385       .  S
C631        C632   1.417       .  A
C631        C636   1.402       .  A
C631        H638   1.080       .  S
C632        C633   1.430       .  A
C633        C640   1.522       .  S
C633        C634   1.411       .  A
C634        C635   1.405       .  A
C634        H639   1.084       .  S
C635        C636   1.413       .  A
C636        C637   1.522       .  S
C637        F641   1.385   1_545  S
C637        F642   1.382       .  S
C637        F643   1.384       .  S
C640        F644   1.382       .  S
C640        F645   1.381       .  S
C640        F646   1.386       .  S
C647        C648   1.403       .  A
C647        C652   1.413       .  A
C647        H654   1.076       .  S
C648        C649   1.417       .  A
C649        C650   1.400       .  A
C650        C651   1.407       .  A
C650        H655   1.084       .  S
C651        C652   1.421       .  A
C652        C653   1.517       .  S
C653        F657   1.385       .  S
C653        F658   1.382       .  S
C653        F659   1.384       .  S
C656        F660   1.383       .  S
C656        F661   1.383       .  S
C656        F662   1.384       .  S
C663        C664   1.399       .  A
C663        C668   1.400       .  A
C663        H670   1.085       .  S
C664        C665   1.416       .  A
C665        C672   1.516       .  S
C665        C666   1.412       .  A
C666        C667   1.405       .  A
C666        H671   1.084       .  S
C667        C668   1.420       .  A
C669        F673   1.383   1_545  S
C669        F674   1.375   1_545  S
C669        F675   1.382       .  S
C672        F676   1.383       .  S
C672        F677   1.382       .  S
C672        F678   1.384       .  S
C679        C680   1.397       .  A
C679        C684   1.406       .  A
C679        H686   1.085       .  S
C680        C681   1.410       .  A
C681        C688   1.519       .  S
C681        C682   1.406       .  A
C682        C683   1.420       .  A
C682        H687   1.081       .  S
C683        C684   1.436       .  A
C684        C685   1.523   1_545  S
C685        F689   1.386       .  S
C685        F690   1.383       .  S
C685        F975   1.374       .  S
C688        F692   1.383       .  S
C688        F693   1.382       .  S
C688        F694   1.384       .  S
F691        C969   1.374       .  S
C695        C696   1.405       .  A
C695        C700   1.401       .  A
C695        H702   1.085       .  S
C696        C697   1.424       .  A
C697        C704   1.521       .  S
C697        C698   1.408       .  A
C698        C699   1.402       .  A
C698        H703   1.082       .  S
C699        C700   1.416       .  A
C701        F705   1.384       .  S
C701        F706   1.382       .  S
C701        F707   1.383       .  S
C704        F708   1.382       .  S
C704        F709   1.384       .  S
C704        F710   1.385       .  S
Fe711       O727   2.076       .  S
Fe711       O717   2.059       .  S
Fe711       O724   2.043       .  S
Fe711       O716   2.079       .  S
Fe711       O722   1.951       .  S
Fe712       O715   2.077       .  S
Fe712       O719   2.056       .  S
Fe712       O723   2.090       .  S
Fe712       O728   2.054       .  S
Fe712       O722   1.955       .  S
Fe713       O731   2.057       .  S
Fe713       O718   2.063       .  S
Fe713       O725   2.079       .  S
Fe713       O714   2.061       .  S
Fe713       O722   1.954       .  S
O714        C721   1.271       .  A
O715        C729   1.274       .  A
O716        C721   1.272       .  A
O717        C720   1.265       .  A
O718        C730   1.265       .  A
O719        C732   1.265       .  A
C720        O725   1.270       .  A
C720        C806   1.481       .  S
C721        C758   1.472       .  S
O723        C726   1.273       .  A
O724        C726   1.266       .  A
C726        C793   1.490       .  S
O727        C732   1.272       .  A
O728        C730   1.266       .  A
C729        O731   1.273       .  A
C729        C822   1.470       .  S
C730        C777   1.470       .  S
C732        C838   1.489       .  S
C733       C1018   1.535   1_545  S
C733        C739   1.530       .  S
C733        C737   1.529       .  S
C733        C774   1.552       .  S
C734       C1017   1.535       .  S
C734        H741   1.083       .  S
C735        C736   1.552       .  S
C735        C790   1.506       .  S
C736       C1024   1.559       .  S
C736        C738   1.548   1_655  S
C736        H742   1.105       .  S
C737        H743   1.084       .  S
C739        H744   1.071       .  S
C740       C1020   1.563   1_545  S
C740        C761   1.494       .  S
C745        C746   1.526       .  S
C745       C1035   1.536   1_545  S
C745        C749   1.533       .  S
C745        C825   1.544       .  S
C746        H753   1.087       .  S
C747       C1032   1.546   1_545  S
C747        C809   1.483       .  S
C748       C1031   1.546       .  S
C748        C752   1.548       .  S
C748        C750   1.547   1_655  S
C748        H754   1.109       .  S
C749        H755   1.078       .  S
C751       C1029   1.536       .  S
C751        H756   1.083       .  S
C752        C841   1.491       .  S
C757        C758   1.392       .  A
C757        C762   1.401       .  A
C757        H764   1.084       .  S
C758        C759   1.413       .  A
C759        C766   1.516       .  S
C759        C760   1.412       .  A
C760        C761   1.410       .  A
C760        H765   1.084       .  S
C761        C762   1.422       .  A
C763        F767   1.384       .  S
C763        F768   1.381       .  S
C766        F770   1.382       .  S
C766        F771   1.384       .  S
C766        F772   1.384       .  S
C773        C774   1.422       .  A
C773        C778   1.401       .  A
C773        H780   1.083       .  S
C774        C775   1.433       .  A
C775        C782   1.517       .  S
C775        C776   1.410       .  A
C776        C777   1.399       .  A
C776        H781   1.084       .  S
C777        C778   1.403       .  A
C778        C779   1.519       .  S
C779        F783   1.385       .  S
C779        F784   1.383       .  S
C779        F785   1.384       .  S
C782        F786   1.383       .  S
C782        F787   1.382       .  S
C782        F788   1.386       .  S
C789        C790   1.404       .  A
C789        C794   1.414       .  A
C789        H796   1.076       .  S
C790        C791   1.417       .  A
C791        C792   1.399       .  A
C792        C793   1.406       .  A
C792        H797   1.084       .  S
C793        C794   1.421       .  A
C794        C795   1.518       .  S
C795        F799   1.384       .  S
C795        F800   1.382       .  S
C795        F801   1.384       .  S
C798        F802   1.383       .  S
C798        F803   1.383       .  S
C798        F804   1.384       .  S
C805        C806   1.400       .  A
C805        C810   1.399       .  A
C805        H812   1.086       .  S
C806        C807   1.418       .  A
C807        C814   1.517       .  S
C807        C808   1.413       .  A
C808        C809   1.404       .  A
C808        H813   1.084       .  S
C809        C810   1.421       .  A
C811        F815   1.382       .  S
C811        F816   1.373       .  S
C811        F817   1.383   1_565  S
C814        F818   1.383       .  S
C814        F819   1.382       .  S
C814        F820   1.385       .  S
C821        C822   1.399       .  A
C821        C826   1.404       .  A
C821        H828   1.086       .  S
C822        C823   1.409       .  A
C823        C830   1.517       .  S
C823        C824   1.404       .  A
C824        C825   1.416       .  A
C824        H829   1.082       .  S
C825        C826   1.430       .  A
C826        C827   1.521   1_545  S
C827        F831   1.386   1_565  S
C827        F832   1.383       .  S
C827       F1117   1.374       .  S
C830        F834   1.382       .  S
C830        F835   1.384       .  S
C830        F836   1.385       .  S
F833       C1111   1.370       .  S
C837        C838   1.405       .  A
C837        C842   1.402       .  A
C837        H844   1.084       .  S
C838        C839   1.425       .  A
C839        C846   1.521       .  S
C839        C840   1.409       .  A
C840        C841   1.402       .  A
C840        H845   1.081       .  S
C841        C842   1.417       .  A
C843        F847   1.384       .  S
C843        F848   1.382       .  S
C843        F849   1.383       .  S
C846        F850   1.382       .  S
C846        F851   1.384       .  S
C846        F852   1.385       .  S
Fe853       O869   2.082       .  S
Fe853       O859   2.062       .  S
Fe853       O866   2.050       .  S
Fe853       O858   2.082       .  S
Fe853       O864   1.955       .  S
Fe854       O857   2.080       .  S
Fe854       O861   2.057       .  S
Fe854       O865   2.091       .  S
Fe854       O870   2.053       .  S
Fe854       O864   1.956       .  S
Fe855       O873   2.061       .  S
Fe855       O860   2.071       .  S
Fe855       O867   2.083       .  S
Fe855       O856   2.065       .  S
Fe855       O864   1.955       .  S
O856        C863   1.272       .  A
O857        C871   1.274       .  A
O858        C863   1.273       .  A
O859        C862   1.266       .  A
O860        C872   1.268       .  A
O861        C874   1.266       .  A
C862        O867   1.272       .  A
C862        C948   1.481       .  S
C863        C900   1.476       .  S
O865        C868   1.273       .  A
O866        C868   1.267       .  A
C868        C935   1.496       .  S
O869        C874   1.273       .  A
O870        C872   1.266       .  A
C871        O873   1.273       .  A
C871        C964   1.476       .  S
C872        C919   1.472       .  S
C874        C980   1.488       .  S
C875        C881   1.533       .  S
C875        C879   1.529       .  S
C875        C916   1.555       .  S
C876        H883   1.083       .  S
C877        C878   1.554       .  S
C877        C932   1.505       .  S
C878        C880   1.551   1_665  S
C878        H884   1.106       .  S
C879        H885   1.084       .  S
C880       C1034   1.509   1_554  S
C881        H886   1.072       .  S
C882        C903   1.491       .  S
C887        C888   1.529       .  S
C887        C891   1.536       .  S
C887        C967   1.548       .  S
C888        H895   1.087       .  S
C889        C951   1.486       .  S
C890        C894   1.546       .  S
C890        C892   1.544   1_665  S
C890        H896   1.109       .  S
C891        H897   1.078       .  S
C892       C1022   1.503       .  S
C893        H898   1.079       .  S
C894        C983   1.492       .  S
C899        C900   1.396       .  A
C899        C904   1.404       .  A
C899        H906   1.084       .  S
C900        C901   1.414       .  A
C901        C908   1.516       .  S
C901        C902   1.410       .  A
C902        C903   1.407       .  A
C902        H907   1.084       .  S
C903        C904   1.421       .  A
C905        F909   1.384       .  S
C905        F910   1.382       .  S
C908        F912   1.382       .  S
C908        F913   1.383       .  S
C908        F914   1.385       .  S
C915        C916   1.423       .  A
C915        C920   1.401       .  A
C915        H922   1.083       .  S
C916        C917   1.433       .  A
C917        C924   1.517       .  S
C917        C918   1.413       .  A
C918        C919   1.401       .  A
C918        H923   1.083       .  S
C919        C920   1.401       .  A
C920        C921   1.519       .  S
C921        F925   1.384       .  S
C921        F926   1.382       .  S
C921        F927   1.384       .  S
C924        F928   1.383       .  S
C924        F929   1.382       .  S
C924        F930   1.385       .  S
C931        C932   1.400       .  A
C931        C936   1.413       .  A
C931        H938   1.075       .  S
C932        C933   1.418       .  A
C933        C934   1.401       .  A
C934        C935   1.408       .  A
C934        H939   1.084       .  S
C935        C936   1.423       .  A
C936        C937   1.518       .  S
C937        F941   1.384       .  S
C937        F942   1.383       .  S
C937        F943   1.383       .  S
C940        F944   1.383       .  S
C940        F945   1.382       .  S
C940        F946   1.384       .  S
C947        C948   1.399       .  A
C947        C952   1.399       .  A
C947        H954   1.086       .  S
C948        C949   1.418       .  A
C949        C956   1.515       .  S
C949        C950   1.414       .  A
C950        C951   1.405       .  A
C950        H955   1.084       .  S
C951        C952   1.421       .  A
C953        F957   1.382       .  S
C953        F958   1.374       .  S
C953        F959   1.383       .  S
C956        F960   1.383       .  S
C956        F961   1.382       .  S
C956        F962   1.385       .  S
C963        C964   1.399       .  A
C963        C968   1.406       .  A
C963        H970   1.086       .  S
C964        C965   1.408       .  A
C965        C972   1.518       .  S
C965        C966   1.406       .  A
C966        C967   1.417       .  A
C966        H971   1.080       .  S
C967        C968   1.432       .  A
C968        C969   1.522       .  S
C969        F973   1.385       .  S
C969        F974   1.383       .  S
C972        F976   1.381       .  S
C972        F977   1.383       .  S
C972        F978   1.385       .  S
C979        C980   1.405       .  A
C979        C984   1.404       .  A
C979        H986   1.084       .  S
C980        C981   1.424       .  A
C981        C988   1.521       .  S
C981        C982   1.409       .  A
C982        C983   1.402       .  A
C982        H987   1.082       .  S
C983        C984   1.415       .  A
C985        F989   1.384       .  S
C985        F990   1.382       .  S
C985        F991   1.383       .  S
C988        F992   1.382       .  S
C988        F993   1.384       .  S
C988        F994   1.385       .  S
Fe995      O1011   2.076       .  S
Fe995      O1001   2.059       .  S
Fe995      O1008   2.048       .  S
Fe995      O1000   2.078       .  S
Fe995      O1006   1.952       .  S
Fe996       O999   2.087       .  S
Fe996      O1003   2.053       .  S
Fe996      O1007   2.100       .  S
Fe996      O1012   2.054       .  S
Fe996      O1006   1.952       .  S
Fe997      O1015   2.054       .  S
Fe997      O1002   2.081       .  S
Fe997      O1009   2.085       .  S
Fe997       O998   2.064       .  S
Fe997      O1006   1.952       .  S
O998       C1005   1.271       .  A
O999       C1013   1.276       .  A
O1000      C1005   1.272       .  A
O1001      C1004   1.266       .  A
O1002      C1014   1.270       .  A
O1003      C1016   1.263       .  A
C1004      O1009   1.273       .  A
C1004      C1090   1.477       .  S
C1005      C1042   1.475       .  S
O1007      C1010   1.276       .  A
O1008      C1010   1.268       .  A
C1010      C1077   1.496       .  S
O1011      C1016   1.271       .  A
O1012      C1014   1.267       .  A
C1013      O1015   1.271       .  A
C1013      C1106   1.472       .  S
C1014      C1061   1.484       .  S
C1016      C1122   1.489       .  S
C1017      C1023   1.529       .  S
C1017      C1021   1.523       .  S
C1017      C1058   1.550       .  S
C1018      H1025   1.084       .  S
C1019      C1020   1.548       .  S
C1019      C1074   1.503       .  S
C1020      C1022   1.550   1_665  S
C1020      H1026   1.107       .  S
C1021      H1027   1.082       .  S
C1023      H1028   1.075       .  S
C1024      C1045   1.493       .  S
C1029      C1030   1.530       .  S
C1029      C1033   1.533       .  S
C1029      C1109   1.549       .  S
C1030      H1037   1.085       .  S
C1031      C1093   1.489       .  S
C1032      C1036   1.547       .  S
C1032      C1034   1.548   1_665  S
C1032      H1038   1.108       .  S
C1033      H1039   1.080       .  S
C1035      H1040   1.080       .  S
C1036      C1125   1.491       .  S
C1041      C1042   1.396       .  A
C1041      C1046   1.405       .  A
C1041      H1048   1.084       .  S
C1042      C1043   1.414       .  A
C1043      C1050   1.517       .  S
C1043      C1044   1.410       .  A
C1044      C1045   1.408       .  A
C1044      H1049   1.084       .  S
C1045      C1046   1.421       .  A
C1047      F1051   1.385       .  S
C1047      F1052   1.381       .  S
C1050      F1054   1.382       .  S
C1050      F1055   1.384       .  S
C1050      F1056   1.385       .  S
C1057      C1058   1.418       .  A
C1057      C1062   1.402       .  A
C1057      H1064   1.082       .  S
C1058      C1059   1.431       .  A
C1059      C1066   1.519       .  S
C1059      C1060   1.413       .  A
C1060      C1061   1.405       .  A
C1060      H1065   1.084       .  S
C1061      C1062   1.409       .  A
C1062      C1063   1.519       .  S
C1063      F1067   1.385       .  S
C1063      F1068   1.382       .  S
C1063      F1069   1.384       .  S
C1066      F1070   1.382       .  S
C1066      F1071   1.383       .  S
C1066      F1072   1.386       .  S
C1073      C1074   1.401       .  A
C1073      C1078   1.414       .  A
C1073      H1080   1.075       .  S
C1074      C1075   1.415       .  A
C1075      C1076   1.401       .  A
C1076      C1077   1.409       .  A
C1076      H1081   1.084       .  S
C1077      C1078   1.423       .  A
C1078      C1079   1.518       .  S
C1079      F1083   1.384       .  S
C1079      F1084   1.383       .  S
C1079      F1085   1.383       .  S
C1082      F1086   1.383       .  S
C1082      F1087   1.383       .  S
C1082      F1088   1.384       .  S
C1089      C1090   1.397       .  A
C1089      C1094   1.400       .  A
C1089      H1096   1.084       .  S
C1090      C1091   1.416       .  A
C1091      C1098   1.516       .  S
C1091      C1092   1.414       .  A
C1092      C1093   1.406       .  A
C1092      H1097   1.084       .  S
C1093      C1094   1.423       .  A
C1095      F1099   1.384       .  S
C1095      F1100   1.376       .  S
C1095      F1101   1.381       .  S
C1098      F1102   1.383       .  S
C1098      F1103   1.382       .  S
C1098      F1104   1.385       .  S
C1105      C1106   1.397       .  A
C1105      C1110   1.404       .  A
C1105      H1112   1.086       .  S
C1106      C1107   1.409       .  A
C1107      C1114   1.519       .  S
C1107      C1108   1.407       .  A
C1108      C1109   1.420       .  A
C1108      H1113   1.081       .  S
C1109      C1110   1.435       .  A
C1110      C1111   1.523       .  S
C1111      F1115   1.386       .  S
C1111      F1116   1.383       .  S
C1114      F1118   1.382       .  S
C1114      F1119   1.383       .  S
C1114      F1120   1.384       .  S
C1121      C1122   1.405       .  A
C1121      C1126   1.402       .  A
C1121      H1128   1.085       .  S
C1122      C1123   1.425       .  A
C1123      C1130   1.521       .  S
C1123      C1124   1.408       .  A
C1124      C1125   1.402       .  A
C1124      H1129   1.081       .  S
C1125      C1126   1.416       .  A
C1127      F1131   1.384       .  S
C1127      F1132   1.381       .  S
C1127      F1133   1.383       .  S
C1130      F1134   1.383       .  S
C1130      F1135   1.384       .  S
C1130      F1136   1.385       .  S
