geometry optimzed in LAMMPS
_audit_creation_date              2020-12-01 
_audit_creation_method            'lammps2cif' 
_symmetry_space_group_name_H-M    'P1' 
_symmetry_Int_Tables_number       1 
_symmetry_cell_setting            triclinic 
loop_ 
_symmetry_equiv_pos_as_xyz 
  x,y,z 
_cell_length_a                    43.14968467 
_cell_length_b                    43.15866239384256 
_cell_length_c                    46.63872462551182 
_cell_angle_alpha                 90.04934801021474 
_cell_angle_beta                  89.99461718211943 
_cell_angle_gamma                 89.9832973774101 
loop_ 
_atom_site_label 
_atom_site_type_symbol 
_atom_site_fract_x 
_atom_site_fract_y 
_atom_site_fract_z 
_atom_site_charge 
C1          C  0.70795088  0.29223176  0.79689450     0.80300
N2          N  0.68059444  0.27880058  0.80455832    -0.78000
C3          C  0.65985032  0.29454165  0.82091138     0.82800
N4          N  0.66681787  0.32344687  0.83029647    -0.77900
C5          C  0.69362170  0.33738733  0.82233237     0.82900
N6          N  0.71428757  0.32169675  0.80575505    -0.79700
C7          C  0.36412328  0.29826695  0.79068121     0.80300
N8          N  0.35298026  0.32612972  0.79992617    -0.78000
C9          C  0.36924257  0.34308519  0.81937435     0.82800
N10         N  0.39623422  0.33181300  0.83002782    -0.77900
C11         C  0.40804794  0.30467782  0.82028374     0.82900
N12         N  0.39193291  0.28788867  0.80069047    -0.79700
C13         C  0.35542667  0.64451186  0.79455765     0.80300
N14         N  0.34546714  0.61578414  0.80268097    -0.78000
C15         C  0.36306127  0.59789040  0.82029941     0.82800
N16         N  0.39061738  0.60875120  0.82990022    -0.77900
C17         C  0.40141207  0.63667958  0.82125038     0.82900
N18         N  0.38361910  0.65474789  0.80394418    -0.79700
C19         C  0.70305613  0.63948020  0.79320925     0.80300
N20         N  0.71314081  0.61105850  0.80194763    -0.78000
C21         C  0.69551690  0.59356121  0.81981327     0.82800
N22         N  0.66803468  0.60469666  0.82932949    -0.77900
C23         C  0.65721566  0.63245771  0.82017846     0.82900
N24         N  0.67487759  0.65004464  0.80231799    -0.79700
N25         N  0.46706149  0.65466933  0.86639418    -0.27200
N26         N  0.48113354  0.65398837  0.84115447    -0.35100
C27         C  0.45943900  0.64993608  0.82057722     0.01100
C28         C  0.43057021  0.64818607  0.83359399     0.07200
C29         C  0.43645701  0.65086836  0.86255061    -0.05900
H30         H  0.46445476  0.64683463  0.79802759     0.07800
H31         H  0.41975215  0.64896694  0.87976581     0.09000
Cu32       Cu  0.52960381  0.65519105  0.83640227     0.44200
Cu33       Cu  0.48876287  0.65760606  0.90600863     0.42000
Cu34       Cu  0.57023089  0.65285584  0.90516712     0.43900
N35         N  0.57803027  0.65184821  0.84050397    -0.34600
N36         N  0.59202334  0.65064581  0.86573294    -0.28800
C37         C  0.62244906  0.64583567  0.86182095    -0.04900
C38         C  0.62836254  0.64440520  0.83280109     0.07300
C39         C  0.59964697  0.64805790  0.81979105     0.01100
H40         H  0.63898281  0.64247306  0.87898541     0.08700
H41         H  0.59462308  0.64636316  0.79711878     0.07800
N42         N  0.54527361  0.65450307  0.94295742    -0.36000
N43         N  0.51475505  0.65651396  0.94340546    -0.28200
C44         C  0.50509181  0.65706770  0.97084663    -0.03500
C45         C  0.53090044  0.65527200  0.98844957     0.05200
C46         C  0.55596746  0.65365603  0.97002501     0.03200
H47         H  0.48109493  0.65845163  0.97744576     0.08400
H48         H  0.58018495  0.65193657  0.97580629     0.07200
N49         N  0.34391346  0.53230102  0.86499420    -0.27200
N50         N  0.34425657  0.51838310  0.83967178    -0.35100
C51         C  0.34864694  0.54010697  0.81920067     0.01100
C52         C  0.35107189  0.56882739  0.83239636     0.07200
C53         C  0.34829733  0.56283068  0.86132252    -0.05900
H54         H  0.35164021  0.53515857  0.79662626     0.07800
H55         H  0.35054946  0.57938921  0.87863355     0.09000
Cu56       Cu  0.34254136  0.47000117  0.83475823     0.44200
Cu57       Cu  0.34061935  0.51044544  0.90448242     0.42000
Cu58       Cu  0.34190510  0.42906303  0.90365747     0.43900
N59         N  0.34686384  0.42171983  0.83904801    -0.34600
N60         N  0.34705263  0.40767463  0.86427350    -0.28800
C61         C  0.35315843  0.37745921  0.86055092    -0.04900
C62         C  0.35649020  0.37175068  0.83164742     0.07300
C63         C  0.35253192  0.40032747  0.81850566     0.01100
H64         H  0.35599482  0.36096211  0.87781282     0.08700
H65         H  0.35529908  0.40546958  0.79595080     0.07800
N66         N  0.34037510  0.45393378  0.94150071    -0.36000
N67         N  0.33998990  0.48450555  0.94188351    -0.28200
C68         C  0.33978436  0.49427615  0.96928707    -0.03500
C69         C  0.34003611  0.46849245  0.98696123     0.05200
C70         C  0.34040622  0.44329543  0.96860384     0.03200
H71         H  0.33977686  0.51833436  0.97581500     0.08400
H72         H  0.34103198  0.41905317  0.97445321     0.07200
N73         N  0.59612953  0.26709822  0.86376594    -0.27200
N74         N  0.58154962  0.27151874  0.83913969    -0.35100
C75         C  0.60267311  0.27926183  0.81903773     0.01100
C76         C  0.63176453  0.27935667  0.83165162     0.07200
C77         C  0.62659035  0.27191880  0.85999226    -0.05900
H78         H  0.59705990  0.28626265  0.79738212     0.07800
H79         H  0.64353698  0.27190693  0.87709293     0.09000
Cu80       Cu  0.53321785  0.27148059  0.83524346     0.44200
Cu81       Cu  0.57491848  0.25968230  0.90296636     0.38000
Cu82       Cu  0.49383091  0.27308068  0.90463518     0.43900
N83         N  0.48565556  0.27927162  0.84028857    -0.34600
N84         N  0.47201669  0.28090422  0.86567579    -0.28800
C85         C  0.44225683  0.28922412  0.86212733    -0.04900
C86         C  0.43657990  0.29241614  0.83317029     0.07300
C87         C  0.46454139  0.28596519  0.81984816     0.01100
H88         H  0.42599672  0.29302685  0.87944155     0.08700
H89         H  0.46954570  0.28751846  0.79716509     0.07800
N90         N  0.51981734  0.26612871  0.94146391    -0.36000
N91         N  0.54999932  0.26110674  0.94086137    -0.28200
C92         C  0.56059039  0.25877415  0.96791192    -0.03500
C93         C  0.53577433  0.26241974  0.98641986     0.05200
C94         C  0.51028039  0.26699165  0.96891030     0.03200
H95         H  0.58463589  0.25530069  0.97363844     0.08400
H96         H  0.48666484  0.27133260  0.97558886     0.07200
N97         N  0.70818651  0.40436585  0.86734326    -0.27200
N98         N  0.70950017  0.41781312  0.84186859    -0.35100
C99         C  0.70571666  0.39585448  0.82149136     0.01100
C100        C  0.70161309  0.36753695  0.83498827     0.07200
C101        C  0.70303866  0.37390020  0.86393052    -0.05900
H102        H  0.70493821  0.40031987  0.79868227     0.07800
H103        H  0.70051266  0.35752190  0.88132850     0.09000
Cu104      Cu  0.71415223  0.46589499  0.83678659     0.44200
Cu105      Cu  0.71332541  0.42699147  0.90622893     0.42000
Cu106      Cu  0.72289092  0.50844354  0.90469217     0.43900
N107        N  0.71372023  0.51437105  0.84038447    -0.34600
N108        N  0.71667015  0.52915504  0.86512425    -0.28800
C109        C  0.71268292  0.55964954  0.86086086    -0.04900
C110        C  0.70746686  0.56464003  0.83208066     0.07300
C111        C  0.70796813  0.53544719  0.81966017     0.01100
H112        H  0.71241226  0.57687032  0.87773751     0.08700
H113        H  0.70291480  0.52980378  0.79754500     0.07800
N114        N  0.72433678  0.48336145  0.94241441    -0.36000
N115        N  0.72068080  0.45299728  0.94291569    -0.28200
C116        C  0.72211598  0.44312127  0.97020222    -0.03500
C117        C  0.72680557  0.46857592  0.98772396     0.05200
C118        C  0.72810167  0.49374574  0.96940582     0.03200
H119        H  0.71953241  0.41922920  0.97677290     0.08400
H120        H  0.73119148  0.51781666  0.97522835     0.07200
N121        N  0.82753114  0.90829107  0.63492984    -0.27200
N122        N  0.84237195  0.92280071  0.65585207    -0.35100
C123        C  0.85422521  0.90142727  0.67387995     0.01100
C124        C  0.84582294  0.87228073  0.66415521     0.07200
C125        C  0.82905070  0.87751655  0.63940589    -0.05900
H126        H  0.86825456  0.90668778  0.69247936     0.07800
H127        H  0.82002084  0.86017278  0.62487423     0.09000
Cu128      Cu  0.84666531  0.97114711  0.65833295     0.44200
Cu129      Cu  0.80944402  0.93016724  0.59894189     0.42000
Cu130      Cu  0.81714409  0.01305334  0.59665076     0.43900
N131        N  0.84644100  0.01963633  0.65522340    -0.34600
N132        N  0.83505605  0.03458429  0.63280394    -0.28800
C133        C  0.83895848  0.06523366  0.63658852    -0.04900
C134        C  0.85328068  0.06998752  0.66267861     0.07300
C135        C  0.85803091  0.04061260  0.67384787     0.01100
H136        H  0.83277662  0.08273149  0.62100209     0.08700
H137        H  0.86964710  0.03489108  0.69370584     0.07800
N138        N  0.80675794  0.98644747  0.56088248    -0.36000
N139        N  0.80385661  0.95597982  0.56170028    -0.28200
C140        C  0.79990548  0.94532010  0.53482049    -0.03500
C141        C  0.80033125  0.97030056  0.51619571     0.05200
C142        C  0.80465744  0.99601235  0.53349440     0.03200
H143        H  0.79831561  0.92105863  0.52916496     0.08400
H144        H  0.80760416  0.01975638  0.52660062     0.07200
C145        C  0.85875646  0.14802923  0.69569844     0.80300
N146        N  0.84784682  0.11948400  0.68831790    -0.78000
C147        C  0.86589927  0.09957885  0.67305179     0.82800
N148        N  0.89466696  0.10851548  0.66466443    -0.77900
C149        C  0.90585054  0.13679034  0.67214899     0.82900
N150        N  0.88776611  0.15661029  0.68741049    -0.79700
N151        N  0.22307140  0.90998088  0.63586619    -0.27200
N152        N  0.21138311  0.92582717  0.65764602    -0.35100
C153        C  0.20061541  0.90565062  0.67736555     0.01100
C154        C  0.20637498  0.87588783  0.66762718     0.07200
C155        C  0.22042723  0.87950925  0.64127317    -0.05900
H156        H  0.18928974  0.91215541  0.69717205     0.07800
H157        H  0.22729886  0.86130223  0.62662782     0.09000
Cu158      Cu  0.21052469  0.97426035  0.65902675     0.44200
Cu159      Cu  0.23995688  0.92979051  0.59848677     0.42000
Cu160      Cu  0.24672144  0.01256099  0.59788389     0.43900
N161        N  0.21582594  0.02227757  0.65545153    -0.34600
N162        N  0.23022198  0.03584030  0.63376683    -0.28800
C163        C  0.22950787  0.06673692  0.63756287    -0.04900
C164        C  0.21386565  0.07302372  0.66273357     0.07300
C165        C  0.20513063  0.04438209  0.67336062     0.01100
H166        H  0.23829388  0.08346624  0.62232781     0.08700
H167        H  0.19154545  0.03996091  0.69241924     0.07800
N168        N  0.25261039  0.98538879  0.56152357    -0.36000
N169        N  0.25009140  0.95487777  0.56175538    -0.28200
C170        C  0.25294475  0.94416367  0.53478001    -0.03500
C171        C  0.25739819  0.96917290  0.51667551     0.05200
C172        C  0.25705558  0.99494347  0.53437050     0.03200
H173        H  0.25073064  0.92006749  0.52870985     0.08400
H174        H  0.25878804  0.01894726  0.52790815     0.07200
N175        N  0.09709360  0.16503787  0.63082130    -0.27200
N176        N  0.08291410  0.15664889  0.65475962    -0.35100
C177        C  0.10464902  0.14824009  0.67410606     0.01100
C178        C  0.13359992  0.15205229  0.66167828     0.07200
C179        C  0.12785806  0.16243589  0.63429097    -0.05900
H180        H  0.09973747  0.13930782  0.69529061     0.07800
H181        H  0.14479652  0.16665050  0.61763572     0.09000
Cu182      Cu  0.03447343  0.15545191  0.65869013     0.44200
Cu183      Cu  0.07529387  0.17682321  0.59293067     0.42000
Cu184      Cu  0.99347637  0.17297161  0.59143704     0.43900
N185        N  0.98612538  0.15428688  0.65385759    -0.34600
N186        N  0.97181847  0.16057720  0.62941267    -0.28800
C187        C  0.94118930  0.15627108  0.63275356    -0.04900
C188        C  0.93573619  0.14716244  0.66060879     0.07300
C189        C  0.96465926  0.14594462  0.67345780     0.01100
H190        H  0.92417193  0.15895922  0.61589837     0.08700
H191        H  0.96980036  0.13869125  0.69514025     0.07800
N192        N  0.01968975  0.18053282  0.55487682    -0.36000
N193        N  0.05023996  0.18191725  0.55549281    -0.28200
C194        C  0.06099193  0.18508655  0.52858920    -0.03500
C195        C  0.03591323  0.18575419  0.51012158     0.05200
C196        C  0.01006832  0.18285160  0.52752918     0.03200
H197        H  0.08527908  0.18580312  0.52287271     0.08400
H198        H  0.98612549  0.18143111  0.52078044     0.07200
C199        C  0.21404834  0.15411517  0.68902068     0.80300
N200        N  0.22334984  0.12461749  0.68310235    -0.78000
C201        C  0.20305558  0.10367478  0.67207604     0.82800
N202        N  0.17344880  0.11237881  0.66647257    -0.77900
C203        C  0.16391032  0.14170950  0.67218609     0.82900
N204        N  0.18434171  0.16260912  0.68303894    -0.79700
N205        N  0.09105531  0.77806290  0.64514100    -0.27200
N206        N  0.07634182  0.79214244  0.66640580    -0.35100
C207        C  0.09770879  0.80413430  0.68446806     0.01100
C208        C  0.12693824  0.79654803  0.67422571     0.07200
C209        C  0.12175985  0.78027103  0.64928478    -0.05900
H210        H  0.09239541  0.81772969  0.70333753     0.07800
H211        H  0.13911296  0.77188624  0.63442776     0.09000
Cu212      Cu  0.02773012  0.79499297  0.66884990     0.44200
Cu213      Cu  0.07040898  0.75933283  0.60906031     0.42000
Cu214      Cu  0.98890335  0.75847779  0.60757605     0.43900
N215        N  0.97933366  0.79161276  0.66430862    -0.34600
N216        N  0.96597752  0.77722016  0.64247375    -0.28800
C217        C  0.93505637  0.77893879  0.64524638    -0.04900
C218        C  0.92833070  0.79527212  0.66984204     0.07300
C219        C  0.95686106  0.80329896  0.68138667     0.01100
H220        H  0.91862761  0.77003394  0.62977019     0.08700
H221        H  0.96096218  0.81686461  0.70052879     0.07800
N222        N  0.01527966  0.74901541  0.57158725    -0.36000
N223        N  0.04584826  0.74938396  0.57211913    -0.28200
C224        C  0.05665844  0.74501275  0.54536621    -0.03500
C225        C  0.03157236  0.74174995  0.52710180     0.05200
C226        C  0.00568630  0.74438272  0.54448522     0.03200
H227        H  0.08091088  0.74556336  0.53951008     0.08400
H228        H  0.98168260  0.74436731  0.53779326     0.07200
C229        C  0.20834361  0.79720810  0.69891482     0.80300
N230        N  0.17852400  0.78803906  0.69455817    -0.78000
C231        C  0.15731749  0.80806695  0.68354746     0.82800
N232        N  0.16624487  0.83710408  0.67599870    -0.77900
C233        C  0.19600833  0.84638804  0.67994600     0.82900
N234        N  0.21706852  0.82630185  0.69109617    -0.79700
C235        C  0.84638421  0.79209355  0.69286033     0.80300
N236        N  0.87670692  0.78441329  0.68902491    -0.78000
C237        C  0.89717612  0.80539789  0.67839923     0.82800
N238        N  0.88717671  0.83418236  0.67111406    -0.77900
C239        C  0.85690360  0.84205002  0.67449512     0.82900
N240        N  0.83653212  0.82086534  0.68500669    -0.79700
C241        C  0.71281973  0.29181539  0.20922195     0.80300
N242        N  0.72187644  0.32076966  0.20105144    -0.78000
C243        C  0.70343966  0.33810473  0.18372009     0.82800
N244        N  0.67619389  0.32627275  0.17421844    -0.77900
C245        C  0.66647118  0.29795249  0.18294057     0.82900
N246        N  0.68493873  0.28059843  0.20019718    -0.79700
C247        C  0.36898770  0.29842011  0.21563521     0.80300
N248        N  0.39642211  0.28677981  0.20579365    -0.78000
C249        C  0.41383031  0.30324176  0.18687736     0.82800
N250        N  0.40334172  0.33088871  0.17713187    -0.77900
C251        C  0.37664852  0.34317378  0.18735657     0.82900
N252        N  0.35950023  0.32692751  0.20656750    -0.79700
C253        C  0.35899545  0.64130848  0.21265097     0.80300
N254        N  0.34891221  0.61310544  0.20337532    -0.78000
C255        C  0.36710706  0.59553914  0.18604064     0.82800
N256        N  0.39508591  0.60641621  0.17758302    -0.77900
C257        C  0.40578275  0.63398429  0.18732927     0.82900
N258        N  0.38758834  0.65162553  0.20462574    -0.79700
C259        C  0.70474700  0.63662566  0.21740549     0.80300
N260        N  0.71706216  0.60944533  0.20773479    -0.78000
C261        C  0.70138239  0.59184509  0.18844377     0.82800
N262        N  0.67373760  0.60179796  0.17823379    -0.77900
C263        C  0.66072387  0.62825997  0.18820675     0.82900
N264        N  0.67627024  0.64574050  0.20776461    -0.79700
N265        N  0.72165032  0.40492334  0.14025131    -0.27200
N266        N  0.72360013  0.41787249  0.16592120    -0.35100
C267        C  0.71931053  0.39562049  0.18592078     0.01100
C268        C  0.71429848  0.36768535  0.17189962     0.07200
C269        C  0.71568823  0.37460084  0.14312170    -0.05900
H270        H  0.71829540  0.39973868  0.20878544     0.07800
H271        H  0.71192975  0.35880810  0.12542728     0.09000
Cu272      Cu  0.72842366  0.46590552  0.17148129     0.44200
Cu273      Cu  0.72510586  0.42785076  0.10161028     0.42000
Cu274      Cu  0.72981595  0.50870809  0.10250426     0.43900
N275        N  0.72500172  0.51424501  0.16750642    -0.34600
N276        N  0.72508319  0.52887856  0.14254645    -0.28800
C277        C  0.71896026  0.55899458  0.14686479    -0.04900
C278        C  0.71534659  0.56399655  0.17584417     0.07300
C279        C  0.71910645  0.53512979  0.18840845     0.01100
H280        H  0.71600652  0.57585220  0.12992027     0.08700
H281        H  0.71581460  0.52940090  0.21078156     0.07800
N282        N  0.72954804  0.48393260  0.06451561    -0.36000
N283        N  0.72759262  0.45343446  0.06437971    -0.28200
C284        C  0.72685999  0.44330344  0.03715335    -0.03500
C285        C  0.72844921  0.46874874  0.01922506     0.05200
C286        C  0.73015406  0.49419944  0.03727551     0.03200
H287        H  0.72490844  0.41922877  0.03093958     0.08400
H288        H  0.73119114  0.51834102  0.03112767     0.07200
N289        N  0.59549432  0.64582502  0.14204552    -0.27200
N290        N  0.58174202  0.64838408  0.16733504    -0.35100
C291        C  0.60328354  0.64452297  0.18807630     0.01100
C292        C  0.63167909  0.63909795  0.17508322     0.07200
C293        C  0.62572508  0.63982676  0.14602338    -0.05900
H294        H  0.59835153  0.64407713  0.21081512     0.07800
H295        H  0.64214776  0.63565848  0.12891150     0.09000
Cu296      Cu  0.53365689  0.65361852  0.17212301     0.44200
Cu297      Cu  0.57372023  0.64886335  0.10240038     0.42000
Cu298      Cu  0.49261429  0.65668019  0.10337457     0.43900
N299        N  0.48523931  0.65248477  0.16794908    -0.34600
N300        N  0.47110568  0.65347853  0.14278073    -0.28800
C301        C  0.44057730  0.64940356  0.14655031    -0.04900
C302        C  0.43479543  0.64611157  0.17542391     0.07300
C303        C  0.46363202  0.64788646  0.18849130     0.01100
H304        H  0.42389865  0.64755528  0.12930640     0.08700
H305        H  0.46870928  0.64430845  0.21096121     0.07800
N306        N  0.51734875  0.65539178  0.06553467    -0.36000
N307        N  0.54778303  0.65239622  0.06503137    -0.28200
C308        C  0.55737886  0.65198631  0.03757270    -0.03500
C309        C  0.53161606  0.65482590  0.02002578     0.05200
C310        C  0.50662609  0.65690528  0.03849872     0.03200
H311        H  0.58128502  0.64967917  0.03091572     0.08400
H312        H  0.48244344  0.65924795  0.03277552     0.07200
N313        N  0.35367985  0.40638800  0.14099830    -0.27200
N314        N  0.35231479  0.42069385  0.16610716    -0.35100
C315        C  0.35868316  0.39999006  0.18699579     0.01100
C316        C  0.36453172  0.37159583  0.17423998     0.07200
C317        C  0.36138045  0.37660386  0.14519816    -0.05900
H318        H  0.36047232  0.40555490  0.20955719     0.07800
H319        H  0.36501696  0.35988489  0.12822414     0.09000
Cu320      Cu  0.34554549  0.46845436  0.17038276     0.44200
Cu321      Cu  0.34715267  0.42690569  0.10122027     0.42000
Cu322      Cu  0.34560115  0.50843382  0.10128567     0.43900
N323        N  0.34790682  0.51657969  0.16582293    -0.34600
N324        N  0.34869868  0.53046281  0.14054307    -0.28800
C325        C  0.35364711  0.56087273  0.14434736    -0.04900
C326        C  0.35551722  0.56672946  0.17334621     0.07300
C327        C  0.35199340  0.53815443  0.18645520     0.01100
H328        H  0.35669875  0.57740368  0.12714503     0.08700
H329        H  0.35409847  0.53315884  0.20909934     0.07800
N330        N  0.34331294  0.48295539  0.06383041    -0.36000
N331        N  0.34369733  0.45237705  0.06365456    -0.28200
C332        C  0.34224812  0.44237912  0.03633387    -0.03500
C333        C  0.34092753  0.46804118  0.01853293     0.05200
C334        C  0.34165462  0.49336194  0.03671471     0.03200
H335        H  0.34248592  0.41828122  0.02993395     0.08400
H336        H  0.34125158  0.51756847  0.03072720     0.07200
N337        N  0.60147098  0.27468830  0.13892365    -0.27200
N338        N  0.58760109  0.27605974  0.16422707    -0.35100
C339        C  0.60913780  0.28246191  0.18438569     0.01100
C340        C  0.63768621  0.28520194  0.17101300     0.07200
C341        C  0.63183451  0.28050768  0.14227201    -0.05900
H342        H  0.60412400  0.28652193  0.20680570     0.07800
H343        H  0.64832273  0.28220406  0.12486182     0.09000
Cu344      Cu  0.53943341  0.27324319  0.16950646     0.44200
Cu345      Cu  0.57942171  0.26782732  0.09993252     0.42000
Cu346      Cu  0.49796034  0.27459750  0.10105371     0.43900
N347        N  0.49136002  0.27893865  0.16574989    -0.34600
N348        N  0.47706055  0.28026520  0.14066964    -0.28800
C349        C  0.44711168  0.28731529  0.14486429    -0.04900
C350        C  0.44188843  0.29001062  0.17391931     0.07300
C351        C  0.47045091  0.28474035  0.18665198     0.01100
H352        H  0.43046060  0.29105178  0.12786589     0.08700
H353        H  0.47597742  0.28673501  0.20920435     0.07800
N354        N  0.52253318  0.26859953  0.06335020    -0.36000
N355        N  0.55298627  0.26571864  0.06288958    -0.28200
C356        C  0.56243168  0.26249147  0.03554484    -0.03500
C357        C  0.53657287  0.26348003  0.01798139     0.05200
C358        C  0.51167937  0.26739156  0.03634301     0.03200
H359        H  0.58635751  0.26016887  0.02895039     0.08400
H360        H  0.48749962  0.26950341  0.03053593     0.07200
N361        N  0.09636128  0.77178673  0.37791022    -0.27200
N362        N  0.08137682  0.78414369  0.35594620    -0.35100
C363        C  0.10225672  0.79491852  0.33691653     0.01100
C364        C  0.13161038  0.78856659  0.34725559     0.07200
C365        C  0.12705436  0.77407026  0.37328533    -0.05900
H366        H  0.09649267  0.80670763  0.31716100     0.07800
H367        H  0.14473675  0.76666619  0.38823394     0.09000
Cu368      Cu  0.03316100  0.78614731  0.35306528     0.44200
Cu369      Cu  0.07490316  0.75472950  0.41449713     0.42000
Cu370      Cu  0.99178970  0.75257078  0.41338703     0.43900
N371        N  0.98504500  0.78182136  0.35487452    -0.34600
N372        N  0.97037045  0.76842871  0.37647410    -0.28800
C373        C  0.93970757  0.76929836  0.37154196    -0.04900
C374        C  0.93475123  0.78394450  0.34567786     0.07300
C375        C  0.96389423  0.79200088  0.33579462     0.01100
H376        H  0.92222489  0.76116386  0.38636670     0.08700
H377        H  0.96930045  0.80468070  0.31643014     0.07800
N378        N  0.01759859  0.74562886  0.45025753    -0.36000
N379        N  0.04820721  0.74634430  0.45070203    -0.28200
C380        C  0.05795160  0.74348199  0.47797713    -0.03500
C381        C  0.03219896  0.74091948  0.49552713     0.05200
C382        C  0.00701306  0.74234080  0.47721048     0.03200
H383        H  0.08194407  0.74460853  0.48462084     0.08400
H384        H  0.98276392  0.74235188  0.48310417     0.07200
C385        C  0.20901132  0.78716431  0.31286062     0.80300
N386        N  0.18065065  0.77810546  0.32255365    -0.78000
C387        C  0.16135744  0.79879249  0.33538492     0.82800
N388        N  0.17083097  0.82844829  0.33949434    -0.77900
C389        C  0.19911191  0.83769812  0.33008699     0.82900
N390        N  0.21807177  0.81704761  0.31690594    -0.79700
N391        N  0.23337731  0.02927953  0.36451961    -0.27200
N392        N  0.22248901  0.01442167  0.34180180    -0.35100
C393        C  0.21288736  0.03547906  0.32236608     0.01100
C394        C  0.21862704  0.06473950  0.33328974     0.07200
C395        C  0.23136323  0.05993758  0.36001225    -0.05900
H396        H  0.20202270  0.02990486  0.30210422     0.07800
H397        H  0.23746734  0.07747352  0.37561504     0.09000
Cu398      Cu  0.21984172  0.96619182  0.33905204     0.44200
Cu399      Cu  0.24756790  0.00851945  0.40237179     0.42000
Cu400      Cu  0.24695801  0.92650735  0.40357526     0.43900
N401        N  0.21935942  0.91813948  0.34428524    -0.34600
N402        N  0.22994548  0.90419135  0.36758168    -0.28800
C403        C  0.22542038  0.87353574  0.36516075    -0.04900
C404        C  0.21138922  0.86775986  0.33917873     0.07300
C405        C  0.20762445  0.89647416  0.32644342     0.01100
H406        H  0.23086556  0.85677324  0.38165003     0.08700
H407        H  0.19652788  0.90134068  0.30614066     0.07800
N408        N  0.25386495  0.95281453  0.44013129    -0.36000
N409        N  0.25403073  0.98339809  0.43974929    -0.28200
C410        C  0.25663704  0.99397143  0.46679566    -0.03500
C411        C  0.25811821  0.96873707  0.48507500     0.05200
C412        C  0.25630250  0.94301106  0.46740772     0.03200
H413        H  0.25621932  0.01819636  0.47275898     0.08400
H414        H  0.25559955  0.91897408  0.47393187     0.07200
N415        N  0.10167452  0.15803456  0.36033334    -0.27200
N416        N  0.08789539  0.14368180  0.33869905    -0.35100
C417        C  0.10990404  0.13398215  0.32015791     0.01100
C418        C  0.13859351  0.14346470  0.33029848     0.07200
C419        C  0.13244433  0.15835868  0.35584785    -0.05900
H420        H  0.10542047  0.12058157  0.30098894     0.07800
H421        H  0.14929103  0.16725798  0.37093745     0.09000
Cu422      Cu  0.03968056  0.13740363  0.33593906     0.44200
Cu423      Cu  0.07961144  0.17333240  0.39725924     0.42000
Cu424      Cu  0.99766936  0.17047085  0.39641943     0.43900
N425        N  0.99110684  0.13987740  0.33833840    -0.34600
N426        N  0.97650159  0.15326627  0.36001859    -0.28800
C427        C  0.94578937  0.15169279  0.35569435    -0.04900
C428        C  0.94051437  0.13656191  0.33015330     0.07300
C429        C  0.96968058  0.12894526  0.31977093     0.01100
H430        H  0.92848478  0.15984626  0.37070863     0.08700
H431        H  0.97490706  0.11623101  0.30036306     0.07800
N432        N  0.02255606  0.17920862  0.43336761    -0.36000
N433        N  0.05312621  0.18022487  0.43383313    -0.28200
C434        C  0.06264804  0.18402966  0.46108977    -0.03500
C435        C  0.03670951  0.18544477  0.47855645     0.05200
C436        C  0.01170225  0.18233167  0.46023360     0.03200
H437        H  0.08665043  0.18453070  0.46777085     0.08400
H438        H  0.98746237  0.18119583  0.46606144     0.07200
C439        C  0.22055459  0.14516770  0.30656955     0.80300
N440        N  0.22925536  0.11560157  0.31262878    -0.78000
C441        C  0.20817453  0.09471742  0.32227073     0.82800
N442        N  0.17837468  0.10361285  0.32658803    -0.77900
C443        C  0.16942913  0.13313202  0.32095537     0.82900
N444        N  0.19065975  0.15400388  0.31134982    -0.79700
N445        N  0.83911418  0.02627346  0.36559185    -0.27200
N446        N  0.85472486  0.01026369  0.34614071    -0.35100
C447        C  0.86725969  0.03016421  0.32712778     0.01100
C448        C  0.85843427  0.05990023  0.33464764     0.07200
C449        C  0.84077853  0.05659015  0.35913925    -0.05900
H450        H  0.88186598  0.02349777  0.30930357     0.07800
H451        H  0.83114458  0.07499526  0.37214761     0.09000
Cu452      Cu  0.85835637  0.96204293  0.34653953     0.44200
Cu453      Cu  0.81924731  0.00711821  0.40208887     0.42000
Cu454      Cu  0.81834118  0.92414358  0.40528025     0.43900
N455        N  0.85322656  0.91410058  0.34990835    -0.34600
N456        N  0.83737307  0.90062155  0.37073491    -0.28800
C457        C  0.83806362  0.86974574  0.36693734    -0.04900
C458        C  0.85522085  0.86341702  0.34265742     0.07300
C459        C  0.86487516  0.89197268  0.33255911     0.01100
H460        H  0.82804586  0.85306120  0.38155179     0.08700
H461        H  0.87951040  0.89632869  0.31416377     0.07800
N462        N  0.80881404  0.95207407  0.44036878    -0.36000
N463        N  0.80925171  0.98266427  0.43932210    -0.28200
C464        C  0.80483291  0.99394702  0.46593775    -0.03500
C465        C  0.80140581  0.96921793  0.48459808     0.05200
C466        C  0.80402978  0.94304471  0.46760854     0.03200
H467        H  0.80536248  0.01829703  0.47143872     0.08400
H468        H  0.80392463  0.91917878  0.47467727     0.07200
C469        C  0.85966026  0.13890864  0.30398257     0.80300
N470        N  0.84977623  0.11014885  0.31165967    -0.78000
C471        C  0.86991841  0.08928489  0.32299542     0.82800
N472        N  0.89993450  0.09744486  0.32731967    -0.77900
C473        C  0.90999028  0.12620343  0.32011752     0.82900
N474        N  0.88971097  0.14702018  0.30883053    -0.79700
C475        C  0.85476120  0.78210265  0.31735134     0.80300
N476        N  0.88420135  0.77335087  0.32398838    -0.78000
C477        C  0.90459665  0.79424479  0.33489257     0.82800
N478        N  0.89536313  0.82383170  0.33976005    -0.77900
C479        C  0.86592841  0.83267781  0.33366106     0.82900
N480        N  0.84557619  0.81172558  0.32275475    -0.79700
C481        C  0.78141056  0.73427538  0.30485106    -0.05400
C482        C  0.78957327  0.71710362  0.28024625     0.08800
C483        C  0.81951918  0.72035556  0.26846476    -0.02800
C484        C  0.84089667  0.74134906  0.28068124    -0.01000
C485        C  0.83253339  0.75921239  0.30496586    -0.04600
C486        C  0.80275063  0.75524031  0.31718706     0.02400
C487        C  0.76611110  0.69677481  0.26572428     0.09200
C488        C  0.82815231  0.70226253  0.24348103     0.35100
C489        C  0.79421706  0.77216725  0.34288589     0.38600
C490        C  0.74720745  0.70908807  0.24387829    -0.05000
C491        C  0.72654512  0.68976633  0.22863899     0.02200
C492        C  0.72413562  0.65781252  0.23549412    -0.04600
C493        C  0.74232242  0.64586787  0.25828349    -0.00800
C494        C  0.76334100  0.66523583  0.27314271    -0.03400
C495        C  0.74954139  0.74172910  0.23674256     0.35900
C496        C  0.73921202  0.61370124  0.26679948     0.39500
C497        C  0.70914146  0.70272612  0.20488245     0.38600
C498        C  0.78246675  0.65270153  0.29591857     0.35500
C499        C  0.75092207  0.73032691  0.31739785     0.36200
C500        C  0.87105125  0.74542209  0.26744225     0.39500
N501        N  0.69534485  0.71315675  0.18592164    -0.38600
N502        N  0.75143311  0.76778413  0.23117235    -0.40200
N503        N  0.73674187  0.58804772  0.27363780    -0.37900
N504        N  0.79778241  0.64276792  0.31408899    -0.40300
N505        N  0.83500737  0.68775045  0.22358927    -0.40100
N506        N  0.89508589  0.74868778  0.25684904    -0.37700
N507        N  0.78743688  0.78566745  0.36340155    -0.38800
N508        N  0.72659610  0.72704906  0.32739042    -0.40400
C509        C  0.29998832  0.67059808  0.26740611    -0.05400
C510        C  0.29414093  0.70079380  0.25717884     0.08800
C511        C  0.30993793  0.71163546  0.23268977    -0.02800
C512        C  0.33154159  0.69246889  0.21849302    -0.01000
C513        C  0.33742189  0.66208147  0.22860458    -0.04600
C514        C  0.32143339  0.65123934  0.25311632     0.02400
C515        C  0.27199079  0.72176036  0.27258377     0.09200
C516        C  0.30368554  0.74258357  0.22199720     0.35100
C517        C  0.32761536  0.62043178  0.26412492     0.38600
C518        C  0.28343202  0.74452029  0.29147328    -0.05000
C519        C  0.26298348  0.76552075  0.30491236     0.02200
C520        C  0.23064764  0.76427825  0.29923509    -0.04600
C521        C  0.21928134  0.74105865  0.28038065    -0.00800
C522        C  0.23987016  0.71978280  0.26738612    -0.03400
C523        C  0.31649070  0.74628225  0.29699764     0.35900
C524        C  0.18658355  0.73963453  0.27323655     0.39500
C525        C  0.27552594  0.78786281  0.32508385     0.38600
C526        C  0.22808912  0.69599278  0.24828726     0.35500
C527        C  0.28409500  0.65962800  0.29283998     0.36200
C528        C  0.34684043  0.70382074  0.19285860     0.39500
N529        N  0.28567769  0.80569281  0.34107860    -0.38600
N530        N  0.34287584  0.74762918  0.30125990    -0.40200
N531        N  0.16051941  0.73844201  0.26747352    -0.37900
N532        N  0.21870742  0.67690886  0.23315917    -0.40300
N533        N  0.29863626  0.76728529  0.21356515    -0.40100
N534        N  0.35904100  0.71295399  0.17244521    -0.37700
N535        N  0.33257150  0.59584750  0.27289449    -0.38800
N536        N  0.27138283  0.65093250  0.31314549    -0.40400
C537        C  0.26887670  0.21905346  0.29932290    -0.05400
C538        C  0.28740389  0.21203024  0.27526717     0.08800
C539        C  0.28523961  0.18247872  0.26246875    -0.02800
C540        C  0.26357363  0.16059593  0.27271699    -0.01000
C541        C  0.24402683  0.16798577  0.29615554    -0.04600
C542        C  0.24738128  0.19710485  0.30983424     0.02400
C543        C  0.30794530  0.23625163  0.26215845     0.09200
C544        C  0.30533276  0.17472501  0.23856701     0.35100
C545        C  0.22955721  0.20411095  0.33539984     0.38600
C546        C  0.33961179  0.23802874  0.26943036    -0.05000
C547        C  0.35939246  0.25902723  0.25502593     0.02200
C548        C  0.34766335  0.27837788  0.23297947    -0.04600
C549        C  0.31553872  0.27700204  0.22635807    -0.00800
C550        C  0.29587140  0.25628545  0.24109478    -0.03400
C551        C  0.35182290  0.21792520  0.29161175     0.35900
C552        C  0.30267186  0.29546035  0.20323367     0.39500
C553        C  0.39178704  0.26076779  0.26315907     0.38600
C554        C  0.26310775  0.25499783  0.23412681     0.35500
C555        C  0.27216664  0.24886495  0.31334091     0.36200
C556        C  0.26083335  0.13084363  0.25844061     0.39500
N557        N  0.41764497  0.26208618  0.26963937    -0.38600
N558        N  0.36147737  0.20185836  0.30934322    -0.40200
N559        N  0.29231469  0.31009360  0.18478303    -0.37900
N560        N  0.23696387  0.25399424  0.22867272    -0.40300
N561        N  0.32156481  0.16860295  0.21963573    -0.40100
N562        N  0.25874512  0.10711701  0.24701974    -0.37700
N563        N  0.21543511  0.20955985  0.35589191    -0.38800
N564        N  0.27491848  0.27262041  0.32457956    -0.40400
C565        C  0.74384611  0.23294713  0.26329137    -0.05400
C566        C  0.77438618  0.22842330  0.25330464     0.08800
C567        C  0.78510728  0.24560593  0.22958122    -0.02800
C568        C  0.76532623  0.26685866  0.21561336    -0.01000
C569        C  0.73448879  0.27118493  0.22532134    -0.04600
C570        C  0.72398402  0.25424592  0.24941191     0.02400
C571        C  0.79525277  0.20501898  0.26725108     0.09200
C572        C  0.81646401  0.24087127  0.21921752     0.35100
C573        C  0.69284553  0.25907734  0.26025643     0.38600
C574        C  0.79773967  0.17487944  0.25573658    -0.05000
C575        C  0.81868932  0.15331303  0.26772216     0.02200
C576        C  0.83736739  0.16168501  0.29146306    -0.04600
C577        C  0.83442541  0.19180514  0.30325236    -0.00800
C578        C  0.81341983  0.21331113  0.29120131    -0.03400
C579        C  0.77878313  0.16619564  0.23133482     0.35900
C580        C  0.85238432  0.20051415  0.32828060     0.39500
C581        C  0.82176197  0.12284850  0.25486294     0.38600
C582        C  0.81039606  0.24407531  0.30341746     0.35500
C583        C  0.73277332  0.21532595  0.28767542     0.36200
C584        C  0.77646096  0.28312400  0.19041754     0.39500
N585        N  0.82422050  0.09856136  0.24457047    -0.38600
N586        N  0.76360336  0.15935909  0.21187863    -0.40200
N587        N  0.86670796  0.20746693  0.34825389    -0.37900
N588        N  0.80782649  0.26861253  0.31315812    -0.40300
N589        N  0.84145895  0.23694777  0.21097825    -0.40100
N590        N  0.78541708  0.29604984  0.17032438    -0.37700
N591        N  0.66798921  0.26300525  0.26885139    -0.38800
N592        N  0.72393098  0.20124287  0.30712793    -0.40400
C593        C  0.80459598  0.71579374  0.70979407    -0.05400
C594        C  0.78371002  0.72517076  0.73138825     0.08800
C595        C  0.78274699  0.75656287  0.73976165    -0.02800
C596        C  0.80289352  0.77841015  0.72704796    -0.01000
C597        C  0.82419890  0.76912174  0.70553435    -0.04600
C598        C  0.82465903  0.73760045  0.69682554     0.02400
C599        C  0.76339314  0.70184710  0.74618541     0.09200
C600        C  0.76125786  0.76623903  0.76195665     0.35100
C601        C  0.84524940  0.72752158  0.67405680     0.38600
C602        C  0.77472090  0.68536088  0.77008548    -0.05000
C603        C  0.75519631  0.66480991  0.78522946     0.02200
C604        C  0.72408752  0.66017593  0.77635000    -0.04600
C605        C  0.71304082  0.67626127  0.75195781    -0.00800
C606        C  0.73257047  0.69709564  0.73706971    -0.03400
C607        C  0.80645657  0.69007186  0.77940648     0.35900
C608        C  0.68176442  0.67090219  0.74172632     0.39500
C609        C  0.76690927  0.64962701  0.81078204     0.38600
C610        C  0.72094930  0.71390887  0.71241300     0.35500
C611        C  0.80546083  0.68354659  0.70104125     0.36200
C612        C  0.80248822  0.81019585  0.73718448     0.39500
N613        N  0.77628463  0.63758285  0.83118043    -0.38600
N614        N  0.83179148  0.69384037  0.78676279    -0.40200
N615        N  0.65682582  0.66655583  0.73352907    -0.37900
N616        N  0.71174173  0.72742415  0.69275958    -0.40300
N617        N  0.74406471  0.77386819  0.77965115    -0.40100
N618        N  0.80215788  0.83554051  0.74530797    -0.37700
N619        N  0.86167067  0.71940933  0.65591513    -0.38800
N620        N  0.80612668  0.65779544  0.69412722    -0.40400
C621        C  0.32737535  0.70805982  0.74295302    -0.05400
C622        C  0.29531853  0.70880720  0.74877963     0.08800
C623        C  0.28271813  0.68771108  0.76865202    -0.02800
C624        C  0.30208315  0.66663933  0.78338742    -0.01000
C625        C  0.33448902  0.66579043  0.77782671    -0.04600
C626        C  0.34681919  0.68648416  0.75707601     0.02400
C627        C  0.27461966  0.73229656  0.73463207     0.09200
C628        C  0.24962174  0.68812322  0.77423926     0.35100
C629        C  0.37943848  0.68530568  0.74962847     0.38600
C630        C  0.25703243  0.72415917  0.71025212    -0.05000
C631        C  0.23558538  0.74537682  0.69843169     0.02200
C632        C  0.23161612  0.77507037  0.71084943    -0.04600
C633        C  0.24984490  0.78342660  0.73486877    -0.00800
C634        C  0.27115783  0.76209922  0.74671757    -0.03400
C635        C  0.26092382  0.69376170  0.69747925     0.35900
C636        C  0.24577275  0.81352138  0.74822487     0.39500
C637        C  0.21805910  0.73678691  0.67310028     0.38600
C638        C  0.28910003  0.77051099  0.77183666     0.35500
C639        C  0.34034324  0.72971175  0.72243921     0.36200
C640        C  0.28844190  0.64700589  0.80524223     0.39500
N641        N  0.20405466  0.72996147  0.65289631    -0.38600
N642        N  0.26407252  0.66949032  0.68732273    -0.40200
N643        N  0.24248271  0.83752035  0.75889196    -0.37900
N644        N  0.30343736  0.77714685  0.79188957    -0.40300
N645        N  0.22320102  0.68850645  0.77849190    -0.40100
N646        N  0.27735151  0.63146759  0.82266101    -0.37700
N647        N  0.40545590  0.68439506  0.74364294    -0.38800
N648        N  0.35067709  0.74707066  0.70613680    -0.40400
C649        C  0.31849120  0.22727991  0.76593267    -0.05400
C650        C  0.30309320  0.23876418  0.74149270     0.08800
C651        C  0.30890050  0.26934803  0.73225235    -0.02800
C652        C  0.32937671  0.28865169  0.74784240    -0.01000
C653        C  0.34420255  0.27747880  0.77286041    -0.04600
C654        C  0.33873122  0.24651805  0.78168560     0.02400
C655        C  0.27970362  0.21880968  0.72641410     0.09200
C656        C  0.29357763  0.28094125  0.70676660     0.35100
C657        C  0.35257788  0.23472274  0.80785596     0.38600
C658        C  0.24893991  0.21755443  0.73656705    -0.05000
C659        C  0.22739407  0.19685898  0.72416022     0.02200
C660        C  0.23642398  0.17712580  0.70130160    -0.04600
C661        C  0.26711207  0.17928058  0.69054591    -0.00800
C662        C  0.28862081  0.19990358  0.70317285    -0.03400
C663        C  0.23967226  0.23729003  0.76026992     0.35900
C664        C  0.27651172  0.16093112  0.66596047     0.39500
C665        C  0.19626378  0.19521884  0.73581751     0.38600
C666        C  0.32014318  0.20151014  0.69248572     0.35500
C667        C  0.31305255  0.19562066  0.77510357     0.36200
C668        C  0.33549780  0.31986856  0.73786302     0.39500
N669        N  0.17142821  0.19403658  0.74512920    -0.38600
N670        N  0.23239234  0.25305684  0.77919096    -0.40200
N671        N  0.28403018  0.14634290  0.64631887    -0.37900
N672        N  0.34530993  0.20285268  0.68400021    -0.40300
N673        N  0.28136752  0.29010994  0.68637565    -0.40100
N674        N  0.34040802  0.34477673  0.72989300    -0.37700
N675        N  0.36354700  0.22530283  0.82875109    -0.38800
N676        N  0.30870111  0.17034848  0.78232819    -0.40400
C677        C  0.78440581  0.25193902  0.77826514    -0.05400
C678        C  0.77567321  0.23383589  0.75438873     0.08800
C679        C  0.74513386  0.23599473  0.74371694    -0.02800
C680        C  0.72337428  0.25586339  0.75693749    -0.01000
C681        C  0.73178871  0.27353514  0.78130230    -0.04600
C682        C  0.76259748  0.27161306  0.79175238     0.02400
C683        C  0.79854518  0.21244008  0.74025010     0.09200
C684        C  0.73603016  0.21736864  0.71922145     0.35100
C685        C  0.77169723  0.28883599  0.81712081     0.38600
C686        C  0.80492333  0.18304430  0.75216592    -0.05000
C687        C  0.82483246  0.16213371  0.73780507     0.02200
C688        C  0.83845412  0.17038675  0.71131007    -0.04600
C689        C  0.83238180  0.20004578  0.69963505    -0.00800
C690        C  0.81280084  0.22105192  0.71421370    -0.03400
C691        C  0.79084873  0.17430046  0.77920786     0.35900
C692        C  0.84510248  0.20852769  0.67193998     0.39500
C693        C  0.83178707  0.13231921  0.75061056     0.38600
C694        C  0.80715921  0.25162885  0.70242158     0.35500
C695        C  0.81584055  0.25001114  0.78913267     0.36200
C696        C  0.69245780  0.25857619  0.74497916     0.39500
N697        N  0.83742329  0.10853767  0.76080533    -0.38600
N698        N  0.77971068  0.16741068  0.80085556    -0.40200
N699        N  0.85508960  0.21526591  0.64977437    -0.37900
N700        N  0.80264341  0.27608187  0.69315397    -0.40300
N701        N  0.72888774  0.20245832  0.69967694    -0.40100
N702        N  0.66782583  0.26078228  0.73537666    -0.37700
N703        N  0.77897155  0.30257255  0.83735486    -0.38800
N704        N  0.84090225  0.24839950  0.79784076    -0.40400
loop_ 
_geom_bond_atom_site_label_1 
_geom_bond_atom_site_label_2 
_geom_bond_distance 
_geom_bond_site_symmetry_2 
_ccdc_geom_bond_type 
C1            N2   1.363       .  A
C1            N6   1.365       .  A
C1          C681   1.495       .  S
N2            C3   1.358       .  A
C3            N4   1.356       .  A
C3           C76   1.466       .  S
N4            C5   1.356       .  A
C5            N6   1.360       .  A
C5          C100   1.470       .  S
C7            N8   1.365       .  A
C7           N12   1.363       .  A
C7          C653   1.495       .  S
N8            C9   1.360       .  A
C9           N10   1.357       .  A
C9           C62   1.469       .  S
N10          C11   1.355       .  A
C11          N12   1.358       .  A
C11          C86   1.469       .  S
C13          N14   1.366       .  A
C13          N18   1.366       .  A
C13         C625   1.506       .  S
N14          C15   1.360       .  A
C15          N16   1.354       .  A
C15          C52   1.470       .  S
N16          C17   1.354       .  A
C17          N18   1.360       .  A
C17          C28   1.470       .  S
C19          N20   1.364       .  A
C19          N24   1.366       .  A
C19         C604   1.497       .  S
N20          C21   1.358       .  A
C21          N22   1.354       .  A
C21         C110   1.467       .  S
N22          C23   1.355       .  A
C23          N24   1.361       .  A
C23          C38   1.470       .  S
N25          C29   1.343       .  A
N25          N26   1.325       .  A
N25         Cu33   2.075       .  S
N26          C27   1.352       .  A
N26         Cu32   2.104       .  S
C27          C28   1.388       .  A
C27          H30   1.082       .  S
C28          C29   1.379       .  A
C29          H31   1.082       .  S
Cu32         N35   2.103       .  S
Cu33         N43   2.074       .  S
Cu34         N36   2.068       .  S
Cu34         N42   2.067       .  S
N35          C39   1.353       .  A
N35          N36   1.324       .  A
N36          C37   1.342       .  A
C37          C38   1.379       .  A
C37          H40   1.082       .  S
C38          C39   1.389       .  A
C39          H41   1.082       .  S
N42          C46   1.345       .  A
N42          N43   1.320       .  A
N43          C44   1.346       .  A
C44          C45   1.386       .  A
C44          H47   1.082       .  S
C45         C309   1.473   1_556  S
C45          C46   1.383       .  A
C46          H48   1.082       .  S
N49          C53   1.342       .  A
N49          N50   1.325       .  A
N49         Cu57   2.075       .  S
N50          C51   1.352       .  A
N50         Cu56   2.102       .  S
C51          C52   1.387       .  A
C51          H54   1.082       .  S
C52          C53   1.379       .  A
C53          H55   1.082       .  S
Cu56         N59   2.102       .  S
Cu57         N67   2.074       .  S
Cu58         N60   2.067       .  S
Cu58         N66   2.066       .  S
N59          C63   1.352       .  A
N59          N60   1.324       .  A
N60          C61   1.341       .  A
C61          C62   1.378       .  A
C61          H64   1.082       .  S
C62          C63   1.388       .  A
C63          H65   1.082       .  S
N66          C70   1.345       .  A
N66          N67   1.320       .  A
N67          C68   1.346       .  A
C68          C69   1.385       .  A
C68          H71   1.082       .  S
C69         C333   1.473   1_556  S
C69          C70   1.384       .  A
C70          H72   1.082       .  S
N73          C77   1.342       .  A
N73          N74   1.324       .  A
N73         Cu81   2.070       .  S
N74          C75   1.350       .  A
N74         Cu80   2.093       .  S
C75          C76   1.386       .  A
C75          H78   1.082       .  S
C76          C77   1.379       .  A
C77          H79   1.082       .  S
Cu80         N83   2.093       .  S
Cu81         N91   2.070       .  S
Cu82         N84   2.074       .  S
Cu82         N90   2.073       .  S
N83          C87   1.350       .  A
N83          N84   1.324       .  A
N84          C85   1.344       .  A
C85          C86   1.380       .  A
C85          H88   1.082       .  S
C86          C87   1.385       .  A
C87          H89   1.082       .  S
N90          C94   1.345       .  A
N90          N91   1.320       .  A
N91          C92   1.346       .  A
C92          C93   1.384       .  A
C92          H95   1.082       .  S
C93         C357   1.473   1_556  S
C93          C94   1.384       .  A
C94          H96   1.082       .  S
N97         C101   1.343       .  A
N97          N98   1.324       .  A
N97        Cu105   2.071       .  S
N98          C99   1.352       .  A
N98        Cu104   2.099       .  S
C99         C100   1.387       .  A
C99         H102   1.082       .  S
C100        C101   1.379       .  A
C101        H103   1.082       .  S
Cu104       N107   2.099       .  S
Cu105       N115   2.070       .  S
Cu106       N108   2.069       .  S
Cu106       N114   2.067       .  S
N107        C111   1.351       .  A
N107        N108   1.324       .  A
N108        C109   1.342       .  A
C109        C110   1.378       .  A
C109        H112   1.082       .  S
C110        C111   1.386       .  A
C111        H113   1.082       .  S
N114        C118   1.346       .  A
N114        N115   1.320       .  A
N115        C116   1.344       .  A
C116        C117   1.384       .  A
C116        H119   1.082       .  S
C117        C285   1.471   1_556  S
C117        C118   1.384       .  A
C118        H120   1.082       .  S
N121        C125   1.346       .  A
N121        N122   1.324       .  A
N121       Cu129   2.079       .  S
N122        C123   1.349       .  A
N122       Cu128   2.098       .  S
C123        C124   1.385       .  A
C123        H126   1.082       .  S
C124        C239   1.471       .  S
C124        C125   1.381       .  A
C125        H127   1.082       .  S
Cu128       N131   2.098   1_565  S
Cu129       N139   2.078       .  S
Cu130       N132   2.074       .  S
Cu130       N138   2.073   1_545  S
N131        C135   1.350       .  A
N131        N132   1.324       .  A
N132        C133   1.345       .  A
C133        C134   1.380       .  A
C133        H136   1.082       .  S
C134        C147   1.470       .  S
C134        C135   1.386       .  A
C135        H137   1.082       .  S
N138        C142   1.346       .  A
N138        N139   1.322       .  A
N139        C140   1.346       .  A
C140        C141   1.385       .  A
C140        H143   1.082       .  S
C141        C465   1.475       .  S
C141        C142   1.384       .  A
C142        H144   1.082   1_565  S
C145        N146   1.363       .  A
C145        N150   1.362       .  A
C145        C688   1.492       .  S
N146        C147   1.360       .  A
C147        N148   1.358       .  A
N148        C149   1.358       .  A
C149        N150   1.359       .  A
C149        C188   1.468       .  S
N151        C155   1.344       .  A
N151        N152   1.324       .  A
N151       Cu159   2.075       .  S
N152        C153   1.350       .  A
N152       Cu158   2.092       .  S
C153        C154   1.384       .  A
C153        H156   1.082       .  S
C154        C233   1.467       .  S
C154        C155   1.380       .  A
C155        H157   1.082       .  S
Cu158       N161   2.092   1_565  S
Cu159       N169   2.074       .  S
Cu160       N162   2.077       .  S
Cu160       N168   2.077   1_545  S
N161        C165   1.349       .  A
N161        N162   1.324       .  A
N162        C163   1.345       .  A
C163        C164   1.381       .  A
C163        H166   1.082       .  S
C164        C201   1.468       .  S
C164        C165   1.385       .  A
C165        H167   1.082       .  S
N168        C172   1.346       .  A
N168        N169   1.321       .  A
N169        C170   1.346       .  A
C170        C171   1.384       .  A
C170        H173   1.082       .  S
C171        C411   1.474       .  S
C171        C172   1.384       .  A
C172        H174   1.082   1_565  S
N175        C179   1.342       .  A
N175        N176   1.324       .  A
N175       Cu183   2.066       .  S
N176        C177   1.351       .  A
N176       Cu182   2.099       .  S
C177        C178   1.387       .  A
C177        H180   1.082       .  S
C178        C203   1.466       .  S
C178        C179   1.376       .  A
C179        H181   1.082       .  S
Cu182       N185   2.099   1_455  S
Cu183       N193   2.066       .  S
Cu184       N186   2.073       .  S
Cu184       N192   2.072   1_655  S
N185        C189   1.350       .  A
N185        N186   1.325       .  A
N186        C187   1.344       .  A
C187        C188   1.378       .  A
C187        H190   1.082       .  S
C188        C189   1.385       .  A
C189        H191   1.082       .  S
N192        C196   1.345       .  A
N192        N193   1.320       .  A
N193        C194   1.345       .  A
C194        C195   1.383       .  A
C194        H197   1.082       .  S
C195        C435   1.473       .  S
C195        C196   1.385       .  A
C196        H198   1.082   1_455  S
C199        N200   1.363       .  A
C199        N204   1.362       .  A
C199        C660   1.499       .  S
N200        C201   1.359       .  A
C201        N202   1.357       .  A
N202        C203   1.357       .  A
C203        N204   1.359       .  A
N205        C209   1.342       .  A
N205        N206   1.325       .  A
N205       Cu213   2.068       .  S
N206        C207   1.352       .  A
N206       Cu212   2.104       .  S
C207        C208   1.388       .  A
C207        H210   1.082       .  S
C208        C231   1.468       .  S
C208        C209   1.377       .  A
C209        H211   1.082       .  S
Cu212       N215   2.104   1_455  S
Cu213       N223   2.068       .  S
Cu214       N216   2.069       .  S
Cu214       N222   2.068   1_655  S
N215        C219   1.352       .  A
N215        N216   1.324       .  A
N216        C217   1.343       .  A
C217        C218   1.377       .  A
C217        H220   1.082       .  S
C218        C237   1.469       .  S
C218        C219   1.388       .  A
C219        H221   1.082       .  S
N222        C226   1.345       .  A
N222        N223   1.319       .  A
N223        C224   1.345       .  A
C224        C225   1.385       .  A
C224        H227   1.082       .  S
C225        C381   1.473       .  S
C225        C226   1.385       .  A
C226        H228   1.082   1_455  S
C229        N230   1.362       .  A
C229        N234   1.361       .  A
C229        C632   1.494       .  S
N230        C231   1.360       .  A
C231        N232   1.358       .  A
N232        C233   1.358       .  A
C233        N234   1.359       .  A
C235        N236   1.361       .  A
C235        N240   1.363       .  A
C235        C597   1.500       .  S
N236        C237   1.359       .  A
C237        N238   1.358       .  A
N238        C239   1.359       .  A
C239        N240   1.360       .  A
C241        N242   1.364       .  A
C241        N246   1.363       .  A
C241        C569   1.494       .  S
N242        C243   1.359       .  A
C243        N244   1.356       .  A
C243        C268   1.468       .  S
N244        C245   1.355       .  A
C245        N246   1.358       .  A
C245        C340   1.468       .  S
C247        N248   1.365       .  A
C247        N252   1.364       .  A
C247        C548   1.500       .  S
N248        C249   1.360       .  A
C249        N250   1.355       .  A
C249        C350   1.468       .  S
N250        C251   1.354       .  A
C251        N252   1.358       .  A
C251        C316   1.467       .  S
C253        N254   1.363       .  A
C253        N258   1.364       .  A
C253        C513   1.491       .  S
N254        C255   1.358       .  A
C255        N256   1.354       .  A
C255        C326   1.465       .  S
N256        C257   1.355       .  A
C257        N258   1.358       .  A
C257        C302   1.466       .  S
C259        N260   1.364       .  A
C259        N264   1.366       .  A
C259        C492   1.499       .  S
N260        C261   1.358       .  A
C261        N262   1.354       .  A
C261        C278   1.467       .  S
N262        C263   1.354       .  A
C263        N264   1.360       .  A
C263        C292   1.471       .  S
N265        C269   1.341       .  A
N265        N266   1.323       .  A
N265       Cu273   2.062       .  S
N266        C267   1.352       .  A
N266       Cu272   2.099       .  S
C267        C268   1.388       .  A
C267        H270   1.082       .  S
C268        C269   1.377       .  A
C269        H271   1.082       .  S
Cu272       N275   2.100       .  S
Cu273       N283   2.061       .  S
Cu274       N276   2.070       .  S
Cu274       N282   2.069       .  S
N275        C279   1.351       .  A
N275        N276   1.325       .  A
N276        C277   1.341       .  A
C277        C278   1.377       .  A
C277        H280   1.082       .  S
C278        C279   1.387       .  A
C279        H281   1.082       .  S
N282        C286   1.346       .  A
N282        N283   1.319       .  A
N283        C284   1.343       .  A
C284        C285   1.383       .  A
C284        H287   1.082       .  S
C285        C286   1.385       .  A
C286        H288   1.082       .  S
N289        C293   1.343       .  A
N289        N290   1.325       .  A
N289       Cu297   2.078       .  S
N290        C291   1.352       .  A
N290       Cu296   2.099       .  S
C291        C292   1.387       .  A
C291        H294   1.082       .  S
C292        C293   1.380       .  A
C293        H295   1.082       .  S
Cu296       N299   2.099       .  S
Cu297       N307   2.077       .  S
Cu298       N300   2.064       .  S
Cu298       N306   2.063       .  S
N299        C303   1.352       .  A
N299        N300   1.324       .  A
N300        C301   1.341       .  A
C301        C302   1.377       .  A
C301        H304   1.082       .  S
C302        C303   1.388       .  A
C303        H305   1.082       .  S
N306        C310   1.345       .  A
N306        N307   1.320       .  A
N307        C308   1.346       .  A
C308        C309   1.386       .  A
C308        H311   1.082       .  S
C309        C310   1.383       .  A
C310        H312   1.082       .  S
N313        C317   1.342       .  A
N313        N314   1.325       .  A
N313       Cu321   2.076       .  S
N314        C315   1.351       .  A
N314       Cu320   2.091       .  S
C315        C316   1.385       .  A
C315        H318   1.082       .  S
C316        C317   1.379       .  A
C317        H319   1.082       .  S
Cu320       N323   2.091       .  S
Cu321       N331   2.074       .  S
Cu322       N324   2.067       .  S
Cu322       N330   2.066       .  S
N323        C327   1.350       .  A
N323        N324   1.323       .  A
N324        C325   1.341       .  A
C325        C326   1.378       .  A
C325        H328   1.082       .  S
C326        C327   1.385       .  A
C327        H329   1.082       .  S
N330        C334   1.344       .  A
N330        N331   1.320       .  A
N331        C332   1.346       .  A
C332        C333   1.386       .  A
C332        H335   1.082       .  S
C333        C334   1.383       .  A
C334        H336   1.082       .  S
N337        C341   1.343       .  A
N337        N338   1.324       .  A
N337       Cu345   2.073       .  S
N338        C339   1.350       .  A
N338       Cu344   2.097       .  S
C339        C340   1.386       .  A
C339        H342   1.082       .  S
C340        C341   1.379       .  A
C341        H343   1.082       .  S
Cu344       N347   2.096       .  S
Cu345       N355   2.072       .  S
Cu346       N348   2.070       .  S
Cu346       N354   2.069       .  S
N347        C351   1.351       .  A
N347        N348   1.324       .  A
N348        C349   1.342       .  A
C349        C350   1.378       .  A
C349        H352   1.082       .  S
C350        C351   1.387       .  A
C351        H353   1.082       .  S
N354        C358   1.345       .  A
N354        N355   1.320       .  A
N355        C356   1.346       .  A
C356        C357   1.385       .  A
C356        H359   1.082       .  S
C357        C358   1.384       .  A
C358        H360   1.082       .  S
N361        C365   1.345       .  A
N361        N362   1.324       .  A
N361       Cu369   2.077       .  S
N362        C363   1.348       .  A
N362       Cu368   2.087       .  S
C363        C364   1.383       .  A
C363        H366   1.082       .  S
C364        C387   1.466       .  S
C364        C365   1.380       .  A
C365        H367   1.082       .  S
Cu368       N371   2.086   1_455  S
Cu369       N379   2.076       .  S
Cu370       N372   2.071       .  S
Cu370       N378   2.071   1_655  S
N371        C375   1.348       .  A
N371        N372   1.323       .  A
N372        C373   1.343       .  A
C373        C374   1.379       .  A
C373        H376   1.082       .  S
C374        C477   1.464       .  S
C374        C375   1.384       .  A
C375        H377   1.082       .  S
N378        C382   1.345       .  A
N378        N379   1.321       .  A
N379        C380   1.346       .  A
C380        C381   1.385       .  A
C380        H383   1.082       .  S
C381        C382   1.384       .  A
C382        H384   1.082   1_455  S
C385        N386   1.362       .  A
C385        N390   1.361       .  A
C385        C520   1.500       .  S
N386        C387   1.359       .  A
C387        N388   1.357       .  A
N388        C389   1.357       .  A
C389        N390   1.356       .  A
C389        C404   1.464       .  S
N391        C395   1.343       .  A
N391        N392   1.324       .  A
N391       Cu399   2.073       .  S
N392        C393   1.349       .  A
N392       Cu398   2.089   1_545  S
C393        C394   1.384       .  A
C393        H396   1.082       .  S
C394        C441   1.464       .  S
C394        C395   1.378       .  A
C395        H397   1.082       .  S
Cu398       N401   2.089       .  S
Cu399       N409   2.073   1_545  S
Cu400       N402   2.069       .  S
Cu400       N408   2.069       .  S
N401        C405   1.350       .  A
N401        N402   1.324       .  A
N402        C403   1.342       .  A
C403        C404   1.377       .  A
C403        H406   1.082       .  S
C404        C405   1.384       .  A
C405        H407   1.082       .  S
N408        C412   1.345       .  A
N408        N409   1.320       .  A
N409        C410   1.346       .  A
C410        C411   1.385       .  A
C410        H413   1.082   1_565  S
C411        C412   1.384       .  A
C412        H414   1.082       .  S
N415        C419   1.344       .  A
N415        N416   1.325       .  A
N415       Cu423   2.075       .  S
N416        C417   1.351       .  A
N416       Cu422   2.102       .  S
C417        C418   1.387       .  A
C417        H420   1.082       .  S
C418        C443   1.469       .  S
C418        C419   1.379       .  A
C419        H421   1.082       .  S
Cu422       N425   2.102   1_455  S
Cu423       N433   2.074       .  S
Cu424       N426   2.065       .  S
Cu424       N432   2.065   1_655  S
N425        C429   1.352       .  A
N425        N426   1.324       .  A
N426        C427   1.342       .  A
C427        C428   1.377       .  A
C427        H430   1.082       .  S
C428        C473   1.468       .  S
C428        C429   1.388       .  A
C429        H431   1.082       .  S
N432        C436   1.344       .  A
N432        N433   1.320       .  A
N433        C434   1.346       .  A
C434        C435   1.386       .  A
C434        H437   1.082       .  S
C435        C436   1.383       .  A
C436        H438   1.082   1_455  S
C439        N440   1.360       .  A
C439        N444   1.363       .  A
C439        C541   1.494       .  S
N440        C441   1.358       .  A
C441        N442   1.357       .  A
N442        C443   1.357       .  A
C443        N444   1.361       .  A
N445        C449   1.345       .  A
N445        N446   1.324       .  A
N445       Cu453   2.078       .  S
N446        C447   1.348       .  A
N446       Cu452   2.087   1_545  S
C447        C448   1.383       .  A
C447        H450   1.082       .  S
C448        C471   1.467       .  S
C448        C449   1.380       .  A
C449        H451   1.082       .  S
Cu452       N455   2.087       .  S
Cu453       N463   2.078   1_545  S
Cu454       N456   2.073       .  S
Cu454       N462   2.073       .  S
N455        C459   1.348       .  A
N455        N456   1.323       .  A
N456        C457   1.344       .  A
C457        C458   1.380       .  A
C457        H460   1.082       .  S
C458        C479   1.466       .  S
C458        C459   1.384       .  A
C459        H461   1.082       .  S
N462        C466   1.345       .  A
N462        N463   1.321       .  A
N463        C464   1.347       .  A
C464        C465   1.386       .  A
C464        H467   1.082   1_565  S
C465        C466   1.384       .  A
C466        H468   1.082       .  S
C469        N470   1.361       .  A
C469        N474   1.362       .  A
C469        C576   1.494       .  S
N470        C471   1.359       .  A
C471        N472   1.357       .  A
N472        C473   1.357       .  A
C473        N474   1.360       .  A
C475        N476   1.361       .  A
C475        N480   1.362       .  A
C475        C485   1.493       .  S
N476        C477   1.359       .  A
C477        N478   1.356       .  A
N478        C479   1.356       .  A
C479        N480   1.359       .  A
C481        C482   1.410       .  A
C481        C486   1.413       .  A
C481        C499   1.450       .  S
C482        C487   1.501       .  S
C482        C483   1.411       .  A
C483        C484   1.413       .  A
C483        C488   1.451       .  S
C484        C485   1.416       .  A
C484        C500   1.451       .  S
C485        C486   1.416       .  A
C486        C489   1.451       .  S
C487        C490   1.409       .  A
C487        C494   1.410       .  A
C488        N505   1.157       .  T
C489        N507   1.157       .  T
C490        C491   1.412       .  A
C490        C495   1.451       .  S
C491        C492   1.420       .  A
C491        C497   1.451       .  S
C492        C493   1.419       .  A
C493        C494   1.415       .  A
C493        C496   1.451       .  S
C494        C498   1.450       .  S
C495        N502   1.157       .  T
C496        N503   1.157       .  T
C497        N501   1.157       .  T
C498        N504   1.157       .  T
C499        N508   1.157       .  T
C500        N506   1.157       .  T
C509        C510   1.411       .  A
C509        C514   1.413       .  A
C509        C527   1.450       .  S
C510        C515   1.499       .  S
C510        C511   1.410       .  A
C511        C512   1.411       .  A
C511        C516   1.451       .  S
C512        C513   1.417       .  A
C512        C528   1.451       .  S
C513        C514   1.415       .  A
C514        C517   1.450       .  S
C515        C518   1.408       .  A
C515        C522   1.410       .  A
C516        N533   1.157       .  T
C517        N535   1.157       .  T
C518        C519   1.411       .  A
C518        C523   1.452       .  S
C519        C520   1.421       .  A
C519        C525   1.451       .  S
C520        C521   1.420       .  A
C521        C522   1.414       .  A
C521        C524   1.451       .  S
C522        C526   1.451       .  S
C523        N530   1.157       .  T
C524        N531   1.158       .  T
C525        N529   1.157       .  T
C526        N532   1.157       .  T
C527        N536   1.157       .  T
C528        N534   1.157       .  T
C537        C538   1.410       .  A
C537        C542   1.414       .  A
C537        C555   1.450       .  S
C538        C543   1.501       .  S
C538        C539   1.411       .  A
C539        C540   1.413       .  A
C539        C544   1.451       .  S
C540        C541   1.417       .  A
C540        C556   1.451       .  S
C541        C542   1.416       .  A
C542        C545   1.450       .  S
C543        C546   1.410       .  A
C543        C550   1.409       .  A
C544        N561   1.157       .  T
C545        N563   1.157       .  T
C546        C547   1.415       .  A
C546        C551   1.450       .  S
C547        C548   1.419       .  A
C547        C553   1.450       .  S
C548        C549   1.421       .  A
C549        C550   1.412       .  A
C549        C552   1.452       .  S
C550        C554   1.452       .  S
C551        N558   1.157       .  T
C552        N559   1.158       .  T
C553        N557   1.157       .  T
C554        N560   1.157       .  T
C555        N564   1.157       .  T
C556        N562   1.157       .  T
C565        C566   1.411       .  A
C565        C570   1.414       .  A
C565        C583   1.450       .  S
C566        C571   1.502       .  S
C566        C567   1.411       .  A
C567        C568   1.412       .  A
C567        C572   1.451       .  S
C568        C569   1.418       .  A
C568        C584   1.451       .  S
C569        C570   1.416       .  A
C570        C573   1.451       .  S
C571        C574   1.411       .  A
C571        C578   1.411       .  A
C572        N589   1.157       .  T
C573        N591   1.157       .  T
C574        C575   1.413       .  A
C574        C579   1.451       .  S
C575        C576   1.416       .  A
C575        C581   1.451       .  S
C576        C577   1.417       .  A
C577        C578   1.414       .  A
C577        C580   1.450       .  S
C578        C582   1.450       .  S
C579        N586   1.157       .  T
C580        N587   1.157       .  T
C581        N585   1.157       .  T
C582        N588   1.157       .  T
C583        N592   1.157       .  T
C584        N590   1.157       .  T
C593        C594   1.410       .  A
C593        C598   1.415       .  A
C593        C611   1.451       .  S
C594        C599   1.503       .  S
C594        C595   1.410       .  A
C595        C596   1.413       .  A
C595        C600   1.451       .  S
C596        C597   1.418       .  A
C596        C612   1.451       .  S
C597        C598   1.420       .  A
C598        C601   1.451       .  S
C599        C602   1.410       .  A
C599        C606   1.411       .  A
C600        N617   1.157       .  T
C601        N619   1.157       .  T
C602        C603   1.413       .  A
C602        C607   1.451       .  S
C603        C604   1.419       .  A
C603        C609   1.451       .  S
C604        C605   1.416       .  A
C605        C606   1.415       .  A
C605        C608   1.450       .  S
C606        C610   1.450       .  S
C607        N614   1.157       .  T
C608        N615   1.157       .  T
C609        N613   1.157       .  T
C610        N616   1.157       .  T
C611        N620   1.157       .  T
C612        N618   1.157       .  T
C621        C622   1.410       .  A
C621        C626   1.416       .  A
C621        C639   1.450       .  S
C622        C627   1.504       .  S
C622        C623   1.409       .  A
C623        C624   1.414       .  A
C623        C628   1.452       .  S
C624        C625   1.423       .  A
C624        C640   1.451       .  S
C625        C626   1.421       .  A
C626        C629   1.451       .  S
C627        C630   1.411       .  A
C627        C634   1.412       .  A
C628        N645   1.157       .  T
C629        N647   1.157       .  T
C630        C631   1.414       .  A
C630        C635   1.450       .  S
C631        C632   1.416       .  A
C631        C637   1.451       .  S
C632        C633   1.415       .  A
C633        C634   1.414       .  A
C633        C636   1.451       .  S
C634        C638   1.450       .  S
C635        N642   1.157       .  T
C636        N643   1.157       .  T
C637        N641   1.157       .  T
C638        N644   1.157       .  T
C639        N648   1.157       .  T
C640        N646   1.157       .  T
C649        C650   1.410       .  A
C649        C654   1.411       .  A
C649        C667   1.451       .  S
C650        C655   1.501       .  S
C650        C651   1.411       .  A
C651        C652   1.415       .  A
C651        C656   1.450       .  S
C652        C653   1.416       .  A
C652        C668   1.450       .  S
C653        C654   1.418       .  A
C654        C657   1.452       .  S
C655        C658   1.410       .  A
C655        C662   1.410       .  A
C656        N673   1.157       .  T
C657        N675   1.157       .  T
C658        C659   1.413       .  A
C658        C663   1.451       .  S
C659        C660   1.418       .  A
C659        C665   1.451       .  S
C660        C661   1.419       .  A
C661        C662   1.414       .  A
C661        C664   1.451       .  S
C662        C666   1.450       .  S
C663        N670   1.157       .  T
C664        N671   1.157       .  T
C665        N669   1.157       .  T
C666        N672   1.157       .  T
C667        N676   1.157       .  T
C668        N674   1.157       .  T
C677        C678   1.411       .  A
C677        C682   1.414       .  A
C677        C695   1.450       .  S
C678        C683   1.503       .  S
C678        C679   1.412       .  A
C679        C680   1.413       .  A
C679        C684   1.451       .  S
C680        C681   1.415       .  A
C680        C696   1.451       .  S
C681        C682   1.418       .  A
C682        C685   1.451       .  S
C683        C686   1.413       .  A
C683        C690   1.411       .  A
C684        N701   1.157       .  T
C685        N703   1.157       .  T
C686        C687   1.414       .  A
C686        C691   1.450       .  S
C687        C688   1.414       .  A
C687        C693   1.450       .  S
C688        C689   1.416       .  A
C689        C690   1.413       .  A
C689        C692   1.451       .  S
C690        C694   1.451       .  S
C691        N698   1.157       .  T
C692        N699   1.157       .  T
C693        N697   1.157       .  T
C694        N700   1.157       .  T
C695        N704   1.157       .  T
C696        N702   1.157       .  T
