geometry optimzed in LAMMPS
_audit_creation_date              2020-12-01 
_audit_creation_method            'lammps2cif' 
_symmetry_space_group_name_H-M    'P1' 
_symmetry_Int_Tables_number       1 
_symmetry_cell_setting            triclinic 
loop_ 
_symmetry_equiv_pos_as_xyz 
  x,y,z 
_cell_length_a                    28.72532202 
_cell_length_b                    36.07641329321336 
_cell_length_c                    46.74746284420438 
_cell_angle_alpha                 90.04632861325108 
_cell_angle_beta                  89.49852677271379 
_cell_angle_gamma                 89.8200893013877 
loop_ 
_atom_site_label 
_atom_site_type_symbol 
_atom_site_fract_x 
_atom_site_fract_y 
_atom_site_fract_z 
_atom_site_charge 
C1          C  0.01591880  0.51666143  0.47109746     0.03100
C2          C  0.00831530  0.47797677  0.47146732     0.03000
C3          C  0.00335461  0.45955634  0.49777868    -0.17500
C4          C  0.00712550  0.47871660  0.02384672     0.03100
C5          C  0.01458444  0.51757501  0.02352177     0.03000
C6          C  0.01969554  0.53591159  0.99713253    -0.17500
H7          H  0.02432461  0.56571672  0.99692087     0.05100
H8          H  0.99847884  0.42976973  0.49801156     0.05100
Fe9        Fe  0.00602816  0.19150091  0.24272948     1.65800
Fe10       Fe  0.05872945  0.27163081  0.26104930     1.73200
Fe11       Fe  0.95128982  0.27345943  0.23191971     1.54400
O12         O  0.95518614  0.24882632  0.19163099    -0.80900
O13         O  0.01837542  0.31274698  0.27951870    -0.79200
O14         O  0.97607344  0.19103004  0.20307915    -0.83400
O15         O  0.94215526  0.18665656  0.26241923    -0.78300
O16         O  0.99185597  0.31634348  0.21608125    -0.80000
O17         O  0.05284876  0.24192376  0.29920581    -0.82800
C18         C  0.90423692  0.20326619  0.25746253     0.98000
C19         C  0.96168701  0.21486481  0.18522260     1.05400
O20         O  0.00538903  0.24538362  0.24505944    -1.11800
O21         O  0.10799532  0.23439367  0.24577188    -0.74200
O22         O  0.07021448  0.18975885  0.22298974    -0.77700
O23         O  0.90255508  0.23440990  0.24488846    -0.78400
C24         C  0.10758099  0.20535959  0.23045070     0.96900
O25         O  0.03555260  0.18589343  0.28217059    -0.76300
O26         O  0.06640859  0.30250329  0.22369586    -0.81500
C27         C  0.97549666  0.31561303  0.28596920     0.99500
C28         C  0.03499059  0.32065056  0.21062475     1.05400
O29         O  0.94415648  0.29919243  0.27170339    -0.77200
C30         C  0.04568732  0.20736678  0.30269718     1.03700
N31         N  0.57133000  0.00278506  0.25892629    -0.35800
N32         N  0.50047187  0.05811807  0.25023918    -0.56400
N33         N  0.43093645  0.99959002  0.24895141    -0.35800
N34         N  0.50216921  0.94422416  0.25930309    -0.56400
C35         C  0.59424973  0.03402963  0.26636959     0.27700
C36         C  0.59564746  0.97381333  0.26950470     0.27700
C37         C  0.40391147  0.03040057  0.25085068     0.27700
C38         C  0.40459949  0.97034266  0.25735641     0.27700
C39         C  0.53839704  0.07985954  0.24728584     0.36400
C40         C  0.46422387  0.07772663  0.23996846     0.36400
C41         C  0.54111581  0.92310463  0.25768637     0.36400
C42         C  0.46567332  0.92133451  0.25510305     0.36400
C43         C  0.63297247  0.02477965  0.28240621    -0.21100
C44         C  0.63424916  0.98678772  0.28403095    -0.21100
C45         C  0.35981183  0.02051202  0.26039110    -0.21100
C46         C  0.36063150  0.98299722  0.26519277    -0.21100
C47         C  0.52623810  0.11356426  0.23524279    -0.22200
C48         C  0.47913509  0.11221616  0.23057882    -0.22200
C49         C  0.52934046  0.88645513  0.25274525    -0.22200
C50         C  0.48150687  0.88531352  0.25115283    -0.22200
C51         C  0.58313058  0.07029721  0.25699893    -0.17500
C52         C  0.58636836  0.93613595  0.26373713    -0.17500
C53         C  0.41833027  0.93238208  0.25640741    -0.17500
C54         C  0.41737039  0.06659851  0.24227680    -0.17500
H55         H  0.65833812  0.04338546  0.29151778     0.15400
H56         H  0.66094084  0.97071973  0.29453974     0.15400
H57         H  0.32971152  0.03806587  0.26362649     0.15400
H58         H  0.33160566  0.96699165  0.27328495     0.15400
H59         H  0.54874323  0.13686552  0.23068005     0.13700
H60         H  0.45811465  0.13450469  0.22205992     0.13700
H61         H  0.55256212  0.86284285  0.25129125     0.13700
H62         H  0.46081015  0.86071728  0.24773276     0.13700
H63         H  0.54452458  0.00091453  0.24413864     0.26900
H64         H  0.46360785  0.99815655  0.23921429     0.26900
Fe65       Fe  0.99128196  0.80527295  0.24803025     1.65800
Fe66       Fe  0.94575707  0.72023154  0.26251770     1.73200
Fe67       Fe  0.05358459  0.72735261  0.23217227     1.54400
O68         O  0.04744319  0.75546234  0.19335090    -0.80900
O69         O  0.99042938  0.68231463  0.28059636    -0.79200
O70         O  0.01696989  0.80986120  0.20713483    -0.83400
O71         O  0.05674907  0.81321297  0.26477286    -0.78300
O72         O  0.01752725  0.68365500  0.21425003    -0.80000
O73         O  0.94526997  0.74833547  0.30154624    -0.82800
C74         C  0.09578210  0.79831229  0.25933337     0.98000
C75         C  0.03519067  0.78881680  0.18828038     1.05400
O76         O  0.99673852  0.75113584  0.24743669    -1.11800
O77         O  0.89285781  0.75354172  0.24731427    -0.74200
O78         O  0.92453991  0.80608061  0.23187297    -0.77700
O79         O  0.09941056  0.76736060  0.24663607    -0.78400
C80         C  0.88956716  0.78535024  0.23608276     0.96900
O81         O  0.96540150  0.80579903  0.28883778    -0.76300
O82         O  0.94224872  0.68984605  0.22486488    -0.81500
C83         C  0.03380760  0.68074628  0.28543717     0.99500
C84         C  0.97511783  0.67527047  0.21035151     1.05400
O85         O  0.06341647  0.69847584  0.27037507    -0.77200
C86         C  0.95145513  0.78246760  0.30728216     1.03700
C87         C  0.98375899  0.01807760  0.46941285     0.03100
C88         C  0.98309392  0.97888590  0.47010582     0.03000
C89         C  0.98978363  0.96086890  0.49639454    -0.17500
C90         C  0.99318574  0.98080068  0.02221387     0.03100
C91         C  0.98738652  0.01979220  0.02179722     0.03000
C92         C  0.98295527  0.03771539  0.49530505    -0.17500
H93         H  0.97683826  0.06725329  0.49456530     0.05100
H94         H  0.99203803  0.93104023  0.49671288     0.05100
C95         C  0.03442054  0.86144032  0.12818042     0.19500
C96         C  0.03969722  0.90011798  0.12827350    -0.18600
C97         C  0.02781243  0.92127569  0.10444903    -0.10900
C98         C  0.01049416  0.90409993  0.07972878     0.21700
C99         C  0.00632459  0.86527791  0.07936072    -0.20300
C100        C  0.01813477  0.84408108  0.10329358    -0.11100
C101        C  0.99497628  0.92534723  0.05426245    -0.15300
C102        C  0.00553900  0.96119357  0.04918584    -0.29100
C103        C  0.04041216  0.84153446  0.15565913    -0.03400
C104        C  0.04068326  0.80440070  0.15919632    -0.39900
H105        H  0.05159463  0.91426800  0.14730180     0.12900
H106        H  0.03083446  0.95101971  0.10613968     0.12500
H107        H  0.99300000  0.85130073  0.06062930     0.11900
H108        H  0.01263360  0.81447256  0.10250124     0.12200
H109        H  0.97419412  0.91027885  0.03890845     0.14900
H110        H  0.02552646  0.97678193  0.06456701     0.13700
H111        H  0.04183282  0.85894874  0.17463846     0.11400
H112        H  0.04249299  0.78565734  0.14107385     0.13400
C113        C  0.97035139  0.89903739  0.41462676     0.19500
C114        C  0.97772842  0.86049297  0.41536748    -0.18600
C115        C  0.96531928  0.83804422  0.39219397    -0.10900
C116        C  0.94517268  0.85387785  0.36775234     0.21700
C117        C  0.93696235  0.89224024  0.36731154    -0.20300
C118        C  0.94962305  0.91461129  0.39025820    -0.11100
C119        C  0.93795884  0.83318086  0.34073255    -0.15300
C120        C  0.94438201  0.79647343  0.33672427    -0.29100
C121        C  0.98602202  0.92202691  0.43919508    -0.03400
C122        C  0.97094463  0.95692639  0.44420112    -0.39900
H123        H  0.99384809  0.84775567  0.43378981     0.12900
H124        H  0.97307570  0.80874462  0.39322665     0.12500
H125        H  0.92224053  0.90531622  0.34857213     0.11900
H126        H  0.94446581  0.94413823  0.38810675     0.12200
H127        H  0.93095145  0.85017459  0.32202713     0.14900
H128        H  0.94857304  0.77755688  0.35453059     0.13700
H129        H  0.01037454  0.90929424  0.45386118     0.11400
H130        H  0.94598975  0.96937225  0.42991525     0.13400
C131        C  0.30132982  0.87941333  0.24998005     0.19500
C132        C  0.25621547  0.89397686  0.24736685    -0.18600
C133        C  0.21714648  0.87154004  0.25151978    -0.10900
C134        C  0.22228322  0.83365634  0.25794626     0.21700
C135        C  0.26747332  0.81899159  0.26045166    -0.20300
C136        C  0.30669641  0.84170628  0.25684264    -0.11100
C137        C  0.18136652  0.80835384  0.25868566    -0.15300
C138        C  0.13819330  0.81970169  0.26622878    -0.29100
C139        C  0.34150280  0.90437396  0.24446965    -0.03400
C140        C  0.38194569  0.90272985  0.25886101    -0.39900
H141        H  0.25117572  0.92289395  0.24191953     0.12900
H142        H  0.18304659  0.88365193  0.24844728     0.12500
H143        H  0.27240982  0.78977228  0.26483359     0.11900
H144        H  0.34103472  0.82949801  0.25847538     0.12200
H145        H  0.18657746  0.78016348  0.25107966     0.14900
H146        H  0.13318847  0.84726986  0.27510580     0.13700
H147        H  0.33588303  0.92728254  0.22980362     0.11400
H148        H  0.38827483  0.87986384  0.27341792     0.13400
C149        C  0.69125961  0.87786415  0.23970952     0.19500
C150        C  0.70050377  0.84687929  0.22237354    -0.18600
C151        C  0.74583026  0.83255699  0.21993312    -0.10900
C152        C  0.78291578  0.84960296  0.23434389     0.21700
C153        C  0.77373850  0.88129965  0.25091118    -0.20300
C154        C  0.72845709  0.89515372  0.25374612    -0.11100
C155        C  0.83153612  0.83532216  0.23293943    -0.15300
C156        C  0.84237359  0.79923401  0.22955389    -0.29100
C157        C  0.64359411  0.89388578  0.24107419    -0.03400
C158        C  0.62652606  0.91008501  0.26489432    -0.39900
H159        H  0.67255273  0.83366031  0.21082359     0.12900
H160        H  0.75181614  0.80862509  0.20641786     0.12500
H161        H  0.80169804  0.89521746  0.26197511     0.11900
H162        H  0.72280084  0.91995690  0.26638214     0.12200
H163        H  0.85914102  0.85453030  0.23848149     0.14900
H164        H  0.81493282  0.77896371  0.22677461     0.13700
H165        H  0.62328766  0.89443594  0.22157046     0.11400
H166        H  0.64666390  0.90908768  0.28442212     0.13400
C167        C  0.97411852  0.10125197  0.07579681     0.19500
C168        C  0.99319096  0.13688050  0.07853274    -0.18600
C169        C  0.98202181  0.15920039  0.10209923    -0.10900
C170        C  0.95118458  0.14630654  0.12333313     0.21700
C171        C  0.93064941  0.11135310  0.12001041    -0.20300
C172        C  0.94157006  0.08915732  0.09639950    -0.11100
C173        C  0.94532543  0.16557361  0.15110122    -0.15300
C174        C  0.95422207  0.20174362  0.15572027    -0.29100
C175        C  0.98757610  0.07832964  0.05060910    -0.03400
C176        C  0.98078421  0.04136479  0.04883317    -0.39900
H177        H  0.01780200  0.14712070  0.06274870     0.12900
H178        H  0.99930582  0.18564030  0.10425976     0.12500
H179        H  0.90682338  0.10079560  0.13612816     0.11900
H180        H  0.92443889  0.06264377  0.09455338     0.12200
H181        H  0.93661552  0.14812228  0.16934028     0.14900
H182        H  0.95955577  0.22081942  0.13806604     0.13700
H183        H  0.00421462  0.09277180  0.03294780     0.11400
H184        H  0.96830834  0.02637455  0.06744177     0.13400
C185        C  0.02403955  0.13665649  0.36304096     0.19500
C186        C  0.99197989  0.10741398  0.36406700    -0.18600
C187        C  0.98600783  0.08650456  0.38882319    -0.10900
C188        C  0.01282276  0.09390524  0.41314914     0.21700
C189        C  0.04450055  0.12359937  0.41229332    -0.20300
C190        C  0.05013620  0.14487266  0.38745726    -0.11100
C191        C  0.00839051  0.07190271  0.43988105    -0.15300
C192        C  0.98599962  0.03909098  0.44197743    -0.29100
C193        C  0.02993212  0.15617545  0.33546599    -0.03400
C194        C  0.04709803  0.19067556  0.33164497    -0.39900
H195        H  0.97119285  0.10070746  0.34554175     0.12900
H196        H  0.96007551  0.06490888  0.38858132     0.12500
H197        H  0.06537943  0.13009172  0.43081146     0.11900
H198        H  0.07554869  0.16694131  0.38724566     0.12200
H199        H  0.02614276  0.08274546  0.45850741     0.14900
H200        H  0.97194192  0.02640898  0.42301561     0.13700
H201        H  0.01648677  0.14136560  0.31705452     0.11400
H202        H  0.05862048  0.20720496  0.34962902     0.13400
C203        C  0.70136642  0.12078122  0.25044831     0.19500
C204        C  0.74685542  0.10671165  0.24906927    -0.18600
C205        C  0.78502781  0.13024463  0.25129153    -0.10900
C206        C  0.77862222  0.16864728  0.25478278     0.21700
C207        C  0.73314256  0.18298637  0.25553468    -0.20300
C208        C  0.69471567  0.15926408  0.25363577    -0.12100
C209        C  0.81907252  0.19413528  0.25485835    -0.15300
C210        C  0.86086041  0.18368289  0.26490343    -0.29100
C211        C  0.66241415  0.09414506  0.24778245    -0.03400
C212        C  0.61922745  0.09987517  0.25825506    -0.39900
H213        H  0.75293816  0.07727448  0.24622096     0.12900
H214        H  0.81953286  0.11833113  0.24934636     0.12500
H215        H  0.72739298  0.21257453  0.25748102     0.11900
H216        H  0.66015518  0.17124022  0.25397069     0.12200
H217        H  0.81509553  0.22099135  0.24464062     0.14900
H218        H  0.86430985  0.15742742  0.27605720     0.13700
H219        H  0.67040914  0.06737465  0.23818868     0.11400
H220        H  0.60970501  0.12631230  0.26773881     0.13400
C221        C  0.23418976  0.17553172  0.23501414     0.19500
C222        C  0.27930275  0.18900320  0.22988254    -0.18600
C223        C  0.31819381  0.16681349  0.23581233    -0.10900
C224        C  0.31219593  0.13152914  0.24792435     0.21700
C225        C  0.26729989  0.11830684  0.25336314    -0.20300
C226        C  0.22859837  0.13987723  0.24666552    -0.11100
C227        C  0.35213850  0.10806041  0.25558777    -0.15300
C228        C  0.38099225  0.09450832  0.23548806    -0.29100
C229        C  0.19323685  0.20005488  0.23156369    -0.03400
C230        C  0.15183307  0.18663331  0.22333642    -0.39900
H231        H  0.28435399  0.21667360  0.22145452     0.12900
H232        H  0.35282984  0.17745993  0.23171525     0.12500
H233        H  0.26222126  0.09119664  0.26282385     0.11900
H234        H  0.19431357  0.12921562  0.25173268     0.12200
H235        H  0.35450049  0.09813600  0.27747066     0.14900
H236        H  0.37830526  0.10415754  0.21354554     0.13700
H237        H  0.19614900  0.22859037  0.23877272     0.11400
H238        H  0.14981345  0.15864483  0.21481749     0.13400
C239        C  0.02265542  0.39056881  0.14783522     0.19500
C240        C  0.98285140  0.40440936  0.13414369    -0.18600
C241        C  0.98658229  0.42633160  0.10966105    -0.10900
C242        C  0.03041809  0.43506707  0.09805165     0.21700
C243        C  0.07047588  0.42233866  0.11211240    -0.20300
C244        C  0.06675650  0.40002422  0.13666248    -0.11100
C245        C  0.03481495  0.45787350  0.07163993    -0.15300
C246        C  0.00294620  0.45679219  0.05063938    -0.29100
C247        C  0.01526895  0.36618515  0.17324019    -0.03400
C248        C  0.04833543  0.34735572  0.18773723    -0.39900
H249        H  0.94839704  0.39801505  0.14232342     0.12900
H250        H  0.95499524  0.43670490  0.10002307     0.12500
H251        H  0.10469969  0.42912943  0.10377554     0.11900
H252        H  0.09835636  0.39036228  0.14661487     0.12200
H253        H  0.06578087  0.47475416  0.06881781     0.14900
H254        H  0.97464571  0.43696200  0.05190490     0.13700
H255        H  0.97918336  0.36242780  0.17976292     0.11400
H256        H  0.08484562  0.34990418  0.18206441     0.13400
C257        C  0.98999793  0.37334485  0.35553124     0.19500
C258        C  0.03019783  0.38693622  0.36880678    -0.18600
C259        C  0.02770174  0.40460075  0.39531369    -0.10900
C260        C  0.98467866  0.40952040  0.40934305     0.21700
C261        C  0.94434419  0.39556103  0.39641244    -0.20300
C262        C  0.94681827  0.37779446  0.36965750    -0.11100
C263        C  0.98155742  0.42886609  0.43747614    -0.15300
C264        C  0.01074794  0.45658610  0.44426345    -0.29100
C265        C  0.99631846  0.35354163  0.32774766    -0.03400
C266        C  0.96265206  0.33831532  0.31146398    -0.39900
H267        H  0.06406922  0.38354392  0.35874039     0.12900
H268        H  0.05975997  0.41382186  0.40496854     0.12500
H269        H  0.91080511  0.39875926  0.40690682     0.11900
H270        H  0.91504747  0.36746796  0.36040551     0.12200
H271        H  0.95332541  0.42178541  0.45207141     0.14900
H272        H  0.03600267  0.46591329  0.42844206     0.13700
H273        H  0.03224136  0.35034861  0.32065155     0.11400
H274        H  0.92622369  0.34070137  0.31743261     0.13400
C275        C  0.98782922  0.56183128  0.09743870     0.19500
C276        C  0.94708971  0.57185436  0.11248698    -0.18600
C277        C  0.94934934  0.59419663  0.13706895    -0.10900
C278        C  0.99270428  0.60649456  0.14720585     0.21700
C279        C  0.03329498  0.59522881  0.13261573    -0.20300
C280        C  0.03099989  0.57321216  0.10815309    -0.11100
C281        C  0.99846785  0.63148934  0.17232196    -0.15300
C282        C  0.96404179  0.64792425  0.18762789    -0.29100
C283        C  0.98484838  0.53879649  0.07109020    -0.03400
C284        C  0.01705498  0.54035994  0.04994966    -0.39900
H285        H  0.91340735  0.56289029  0.10492412     0.12900
H286        H  0.91721175  0.60172657  0.14779470     0.12500
H287        H  0.06723547  0.60377139  0.14005032     0.11900
H288        H  0.06325943  0.56485385  0.09787715     0.12200
H289        H  0.03421226  0.63783429  0.17792623     0.14900
H290        H  0.92776853  0.64260230  0.18299943     0.13700
H291        H  0.95471522  0.52099684  0.06855443     0.11400
H292        H  0.04437935  0.56103904  0.05081164     0.13400
C293        C  0.02568220  0.62213101  0.35502542     0.19500
C294        C  0.98731180  0.60488864  0.36819032    -0.18600
C295        C  0.99152702  0.58730447  0.39457723    -0.10900
C296        C  0.03453623  0.58614941  0.40863678     0.21700
C297        C  0.07298469  0.60383532  0.39584001    -0.20300
C298        C  0.06877238  0.62153985  0.36917489    -0.11100
C299        C  0.03931441  0.56713121  0.43677808    -0.15300
C300        C  0.01371338  0.53706804  0.44342846    -0.29100
C301        C  0.01719296  0.64186157  0.32754124    -0.03400
C302        C  0.04923499  0.65825723  0.31036108    -0.39900
H303        H  0.95346561  0.60533876  0.35813657     0.12900
H304        H  0.96066277  0.57524283  0.40414730     0.12500
H305        H  0.10639417  0.60369759  0.40639976     0.11900
H306        H  0.09899858  0.63501236  0.36005907     0.12200
H307        H  0.06549615  0.57688687  0.45159619     0.14900
H308        H  0.99081360  0.52566336  0.42732308     0.13700
H309        H  0.98084886  0.64368671  0.32141221     0.11400
H310        H  0.08602038  0.65700385  0.31527534     0.13400
C311        C  0.01592187  0.51666223  0.97109655     0.03100
C312        C  0.00831734  0.47797774  0.97146644     0.03000
C313        C  0.00335555  0.45955755  0.99777783    -0.17500
C314        C  0.00712511  0.47871527  0.52384758     0.03100
C315        C  0.01458357  0.51757373  0.52352269     0.03000
C316        C  0.01969312  0.53591062  0.49713347    -0.17500
H317        H  0.02432164  0.56571580  0.49692194     0.05100
H318        H  0.99847918  0.42977100  0.99801074     0.05100
Fe319      Fe  0.00602688  0.19150021  0.74272992     1.65800
Fe320      Fe  0.05872882  0.27162973  0.76104971     1.73200
Fe321      Fe  0.95128956  0.27345908  0.73191979     1.54400
O322        O  0.95518625  0.24882600  0.69163115    -0.80900
O323        O  0.01837494  0.31274646  0.77951854    -0.79200
O324        O  0.97607263  0.19102954  0.70307947    -0.83400
O325        O  0.94215373  0.18665641  0.76241943    -0.78300
O326        O  0.99185653  0.31634282  0.71608162    -0.80000
O327        O  0.05284735  0.24192316  0.79920631    -0.82800
C328        C  0.90423559  0.20326614  0.75746237     0.98000
C329        C  0.96168679  0.21486445  0.68522284     1.05400
O330        O  0.00538829  0.24538287  0.74505977    -1.11800
O331        O  0.10799443  0.23439208  0.74577282    -0.74200
O332        O  0.07021344  0.18975756  0.72299045    -0.77700
O333        O  0.90255421  0.23440984  0.74488825    -0.78400
C334        C  0.10758003  0.20535799  0.73045166     0.96900
O335        O  0.03555083  0.18589285  0.78217116    -0.76300
O336        O  0.06640885  0.30250148  0.72369610    -0.81500
C337        C  0.97549621  0.31561274  0.78596909     0.99500
C338        C  0.03499126  0.32064923  0.71062505     1.05400
O339        O  0.94415589  0.29919216  0.77170339    -0.77200
C340        C  0.04568584  0.20736621  0.80269771     1.03700
N341        N  0.57133044  0.00278431  0.75892606    -0.35800
N342        N  0.50047172  0.05811694  0.75023796    -0.56400
N343        N  0.43093717  0.99958847  0.74894899    -0.35800
N344        N  0.50217067  0.94422311  0.75930164    -0.56400
C345        C  0.59424936  0.03402907  0.76636964     0.27700
C346        C  0.59564801  0.97381281  0.76950470     0.27700
C347        C  0.40391167  0.03039874  0.75084788     0.27700
C348        C  0.40460049  0.97034091  0.75735384     0.27700
C349        C  0.53839667  0.07985883  0.74728549     0.36400
C350        C  0.46422379  0.07772554  0.73996715     0.36400
C351        C  0.54111746  0.92310370  0.75768572     0.36400
C352        C  0.46567512  0.92133319  0.75510146     0.36400
C353        C  0.63297176  0.02477948  0.78240674    -0.21100
C354        C  0.63424906  0.98678757  0.78403142    -0.21100
C355        C  0.35981187  0.02050979  0.76038773    -0.21100
C356        C  0.36063200  0.98299505  0.76518961    -0.21100
C357        C  0.52623759  0.11356386  0.73524295    -0.22200
C358        C  0.47913476  0.11221552  0.73057839    -0.22200
C359        C  0.52934256  0.88645403  0.75274493    -0.22200
C360        C  0.48150904  0.88531216  0.75115195    -0.22200
C361        C  0.58313013  0.07029652  0.75699879    -0.17500
C362        C  0.58636966  0.93613535  0.76373701    -0.17500
C363        C  0.41833197  0.93238049  0.75640536    -0.17500
C364        C  0.41737041  0.06659691  0.74227456    -0.17500
H365        H  0.65833682  0.04338556  0.79151859     0.15400
H366        H  0.66094071  0.97071988  0.79454051     0.15400
H367        H  0.32971119  0.03806338  0.76362267     0.15400
H368        H  0.33160615  0.96698927  0.77328152     0.15400
H369        H  0.54874248  0.13686548  0.73068089     0.13700
H370        H  0.45811428  0.13450410  0.72205960     0.13700
H371        H  0.55256442  0.86284181  0.75129163     0.13700
H372        H  0.46081256  0.86071572  0.74773213     0.13700
H373        H  0.54452557  0.00091359  0.74413791     0.26900
H374        H  0.46360898  0.99815528  0.73921226     0.26900
Fe375      Fe  0.99128436  0.80527347  0.74803088     1.65800
Fe376      Fe  0.94575988  0.72023185  0.76251774     1.73200
Fe377      Fe  0.05358681  0.72735360  0.73217193     1.54400
O378        O  0.04744446  0.75546355  0.69335067    -0.80900
O379        O  0.99043256  0.68231439  0.78059539    -0.79200
O380        O  0.01697281  0.80986254  0.70713559    -0.83400
O381        O  0.05675136  0.81321299  0.76477401    -0.78300
O382        O  0.01752945  0.68365593  0.71424993    -0.80000
O383        O  0.94527360  0.74833483  0.80154658    -0.82800
C384        C  0.09578436  0.79831260  0.75933384     0.98000
C385        C  0.03519241  0.78881825  0.68828063     1.05400
O386        O  0.99674094  0.75113643  0.74743676    -1.11800
O387        O  0.89286049  0.75354261  0.74731530    -0.74200
O388        O  0.92454260  0.80608108  0.73187311    -0.77700
O389        O  0.09941265  0.76736156  0.74663561    -0.78400
C390        C  0.88956980  0.78535092  0.73608345     0.96900
O391        O  0.96540293  0.80579895  0.78883828    -0.76300
O392        O  0.94225088  0.68984732  0.72486455    -0.81500
C393        C  0.03381072  0.68074690  0.78543655     0.99500
C394        C  0.97511999  0.67527166  0.71035125     1.05400
O395        O  0.06341933  0.69847696  0.77037464    -0.77200
C396        C  0.95145733  0.78246710  0.80728258     1.03700
C397        C  0.98376056  0.01807686  0.96941357     0.03100
C398        C  0.98309471  0.97888517  0.97010639     0.03000
C399        C  0.98978455  0.96086790  0.99639495    -0.17500
C400        C  0.99318417  0.98080194  0.52221339     0.03100
C401        C  0.98738407  0.01979340  0.52179649     0.03000
C402        C  0.98295796  0.03771447  0.99530589    -0.17500
H403        H  0.97684157  0.06725245  0.99456642     0.05100
H404        H  0.99203837  0.93103920  0.99671309     0.05100
C405        C  0.03441901  0.86144223  0.62818067     0.19500
C406        C  0.03969437  0.90012002  0.62827391    -0.18600
C407        C  0.02780960  0.92127763  0.60444935    -0.10900
C408        C  0.01049260  0.90410167  0.57972885     0.21700
C409        C  0.00632409  0.86527956  0.57936069    -0.20300
C410        C  0.01813433  0.84408282  0.60329363    -0.11100
C411        C  0.99497475  0.92534885  0.55426240    -0.15300
C412        C  0.00553748  0.96119515  0.54918556    -0.29100
C413        C  0.04041104  0.84153632  0.65565938    -0.03400
C414        C  0.04068387  0.80440254  0.65919654    -0.39900
H415        H  0.05159086  0.91427019  0.64730236     0.12900
H416        H  0.03083062  0.95102172  0.60614007     0.12500
H417        H  0.99300035  0.85130222  0.56062910     0.11900
H418        H  0.01263412  0.81447419  0.60250118     0.12200
H419        H  0.97419274  0.91028033  0.53890840     0.14900
H420        H  0.02552487  0.97678366  0.56456670     0.13700
H421        H  0.04183091  0.85895058  0.67463874     0.11400
H422        H  0.04249421  0.78565933  0.64107400     0.13400
C423        C  0.97034957  0.89903657  0.91462728     0.19500
C424        C  0.97773518  0.86049308  0.91536603    -0.18600
C425        C  0.96532616  0.83804392  0.89219277    -0.10900
C426        C  0.94517090  0.85387609  0.86775333     0.21700
C427        C  0.93695145  0.89223726  0.86731460    -0.20300
C428        C  0.94961189  0.91460884  0.89026105    -0.11100
C429        C  0.93795836  0.83317971  0.84073318    -0.15300
C430        C  0.94438318  0.79647255  0.83672467    -0.29100
C431        C  0.98602117  0.92202657  0.93919523    -0.03400
C432        C  0.97094388  0.95692596  0.94420182    -0.39900
H433        H  0.99386191  0.84775694  0.93378647     0.12900
H434        H  0.97309006  0.80874543  0.89322359     0.12500
H435        H  0.92222269  0.90531207  0.84857679     0.11900
H436        H  0.94444686  0.94413506  0.88811095     0.12200
H437        H  0.93095029  0.85017365  0.82202795     0.14900
H438        H  0.94857421  0.77755598  0.85453101     0.13700
H439        H  0.01037522  0.90929440  0.95386064     0.11400
H440        H  0.94598827  0.96937217  0.92991670     0.13400
C441        C  0.30133259  0.87941093  0.74997846     0.19500
C442        C  0.25621842  0.89397450  0.74736458    -0.18600
C443        C  0.21714931  0.87153823  0.75151855    -0.10900
C444        C  0.22228573  0.83365499  0.75794661     0.21700
C445        C  0.26747565  0.81899012  0.76045266    -0.20300
C446        C  0.30669892  0.84170438  0.75684278    -0.11100
C447        C  0.18136880  0.80835290  0.75868663    -0.15300
C448        C  0.13819578  0.81970152  0.76622945    -0.29100
C449        C  0.34150566  0.90437110  0.74446730    -0.03400
C450        C  0.38194791  0.90272806  0.75885932    -0.39900
H451        H  0.25117889  0.92289122  0.74191601     0.12900
H452        H  0.18304951  0.88365006  0.74844553     0.12500
H453        H  0.27241187  0.78977107  0.76483573     0.11900
H454        H  0.34103714  0.82949612  0.75847620     0.12200
H455        H  0.18657925  0.78016231  0.75108101     0.14900
H456        H  0.13319146  0.84726989  0.77510623     0.13700
H457        H  0.33588624  0.92727884  0.72980043     0.11400
H458        H  0.38827673  0.87986304  0.77341720     0.13400
C459        C  0.69126140  0.87786326  0.73971035     0.19500
C460        C  0.70050590  0.84687835  0.72237446    -0.18600
C461        C  0.74583263  0.83255661  0.71993383    -0.10900
C462        C  0.78291802  0.84960307  0.73434438     0.21700
C463        C  0.77374038  0.88129972  0.75091162    -0.20300
C464        C  0.72845876  0.89515335  0.75374671    -0.11100
C465        C  0.83153855  0.83532269  0.73293978    -0.15300
C466        C  0.84237616  0.79923451  0.72955472    -0.29100
C467        C  0.64359568  0.89388454  0.74107491    -0.03400
C468        C  0.62652768  0.91008471  0.76489467    -0.39900
H469        H  0.67255500  0.83365897  0.71082465     0.12900
H470        H  0.75181876  0.80862477  0.70641856     0.12500
H471        H  0.80169985  0.89521783  0.76197538     0.11900
H472        H  0.72280228  0.91995660  0.76638262     0.12200
H473        H  0.85914339  0.85453111  0.73848139     0.14900
H474        H  0.81493541  0.77896404  0.72677599     0.13700
H475        H  0.62328901  0.89443378  0.72157126     0.11400
H476        H  0.64666569  0.90908826  0.78442242     0.13400
C477        C  0.97411535  0.10125333  0.57579578     0.19500
C478        C  0.99318713  0.13688213  0.57853144    -0.18600
C479        C  0.98201922  0.15920146  0.60209844    -0.10900
C480        C  0.95118375  0.14630682  0.62333301     0.21700
C481        C  0.93064895  0.11135324  0.62001049    -0.20300
C482        C  0.94156846  0.08915799  0.59639913    -0.11100
C483        C  0.94532585  0.16557337  0.65110133    -0.15300
C484        C  0.95422198  0.20174341  0.65572050    -0.29100
C485        C  0.98757222  0.07833125  0.55060787    -0.03400
C486        C  0.98078170  0.04136620  0.54883230    -0.39900
H487        H  0.01779689  0.14712290  0.56274688     0.12900
H488        H  0.99930289  0.18564154  0.60425878     0.12500
H489        H  0.90682414  0.10079523  0.63612871     0.11900
H490        H  0.92443769  0.06264424  0.59455321     0.12200
H491        H  0.93661678  0.14812172  0.66934035     0.14900
H492        H  0.95955486  0.22081949  0.63806636     0.13700
H493        H  0.00420942  0.09277373  0.53294627     0.11400
H494        H  0.96830724  0.02637585  0.56744120     0.13400
C495        C  0.02404009  0.13665551  0.86304130     0.19500
C496        C  0.99198275  0.10741141  0.86406668    -0.18600
C497        C  0.98601029  0.08650220  0.88882292    -0.10900
C498        C  0.01282261  0.09390475  0.91314965     0.21700
C499        C  0.04449787  0.12360060  0.91229451    -0.20300
C500        C  0.05013380  0.14487366  0.88745837    -0.11100
C501        C  0.00839079  0.07190217  0.93988156    -0.15300
C502        C  0.98600028  0.03909031  0.94197816    -0.29100
C503        C  0.02993345  0.15617415  0.83546629    -0.03400
C504        C  0.04709679  0.19067508  0.83164548    -0.39900
H505        H  0.97119793  0.10070335  0.84554083     0.12900
H506        H  0.96007992  0.06490508  0.88858032     0.12500
H507        H  0.06537470  0.13009449  0.93081322     0.11900
H508        H  0.07554442  0.16694365  0.88724730     0.12200
H509        H  0.02614321  0.08274505  0.95850780     0.14900
H510        H  0.97194202  0.02640824  0.92301655     0.13700
H511        H  0.01649073  0.14136326  0.81705458     0.11400
H512        H  0.05861701  0.20720521  0.84962969     0.13400
C513        C  0.70136577  0.12078051  0.75044752     0.19500
C514        C  0.74685486  0.10671119  0.74906756    -0.18600
C515        C  0.78502709  0.13024443  0.75128943    -0.10900
C516        C  0.77862120  0.16864698  0.75478119     0.21700
C517        C  0.73314145  0.18298585  0.75553386    -0.20300
C518        C  0.69471474  0.15926333  0.75363535    -0.12100
C519        C  0.81907137  0.19413507  0.75485694    -0.15300
C520        C  0.86085883  0.18368291  0.76490279    -0.29100
C521        C  0.66241366  0.09414413  0.74778226    -0.03400
C522        C  0.61922700  0.09987439  0.75825485    -0.39900
H523        H  0.75293775  0.07727408  0.74621893     0.12900
H524        H  0.81953228  0.11833127  0.74934372     0.12500
H525        H  0.72739169  0.21257395  0.75748064     0.11900
H526        H  0.66015414  0.17123927  0.75397096     0.12200
H527        H  0.81509465  0.22099098  0.74463893     0.14900
H528        H  0.86430779  0.15742753  0.77605676     0.13700
H529        H  0.67040863  0.06737357  0.73818873     0.11400
H530        H  0.60970451  0.12631161  0.76773838     0.13400
C531        C  0.23418921  0.17553013  0.73501508     0.19500
C532        C  0.27930216  0.18900254  0.72988474    -0.18600
C533        C  0.31819346  0.16681276  0.73581381    -0.10900
C534        C  0.31219590  0.13152724  0.74792376     0.21700
C535        C  0.26729996  0.11830403  0.75336146    -0.20300
C536        C  0.22859822  0.13987461  0.74666464    -0.11100
C537        C  0.35213871  0.10805834  0.75558640    -0.15300
C538        C  0.38099207  0.09450676  0.73548628    -0.29100
C539        C  0.19323589  0.20005307  0.73156502    -0.03400
C540        C  0.15183210  0.18663147  0.72333771    -0.39900
H541        H  0.28435317  0.21667371  0.72145819     0.12900
H542        H  0.35282940  0.17745995  0.73171770     0.12500
H543        H  0.26222155  0.09119296  0.76282072     0.11900
H544        H  0.19431353  0.12921217  0.75173100     0.12200
H545        H  0.35450118  0.09813332  0.77746910     0.14900
H546        H  0.37830467  0.10415645  0.71354391     0.13700
H547        H  0.19614788  0.22858862  0.73877399     0.11400
H548        H  0.14981240  0.15864303  0.71481872     0.13400
C549        C  0.02265768  0.39056858  0.64783628     0.19500
C550        C  0.98285385  0.40441135  0.63414588    -0.18600
C551        C  0.98658478  0.42633261  0.60966272    -0.10900
C552        C  0.03042051  0.43506498  0.59805175     0.21700
C553        C  0.07047830  0.42233429  0.61211132    -0.20300
C554        C  0.06675876  0.40002074  0.63666187    -0.11100
C555        C  0.03481725  0.45787081  0.57163974    -0.15300
C556        C  0.00294670  0.45679080  0.55064021    -0.29100
C557        C  0.01527094  0.36618576  0.67324169    -0.03400
C558        C  0.04833677  0.34735408  0.68773752    -0.39900
H559        H  0.94839958  0.39801948  0.64232689     0.12900
H560        H  0.95499790  0.43670768  0.60002563     0.12500
H561        H  0.10470211  0.42912262  0.60377321     0.11900
H562        H  0.09835852  0.39035692  0.64661330     0.12200
H563        H  0.06578410  0.47475014  0.56881667     0.14900
H564        H  0.97464489  0.43696188  0.55190664     0.13700
H565        H  0.97918553  0.36243083  0.67976571     0.11400
H566        H  0.08484677  0.34990038  0.68206360     0.13400
C567        C  0.98999807  0.37334433  0.85553121     0.19500
C568        C  0.03019827  0.38693460  0.86880707    -0.18600
C569        C  0.02770226  0.40459991  0.89531366    -0.10900
C570        C  0.98467903  0.40952145  0.90934238     0.21700
C571        C  0.94434419  0.39556333  0.89641140    -0.20300
C572        C  0.94681815  0.37779599  0.86965675    -0.11100
C573        C  0.98155812  0.42886755  0.93747529    -0.15300
C574        C  0.01074959  0.45658693  0.94426261    -0.29100
C575        C  0.99631853  0.35354018  0.82774803    -0.03400
C576        C  0.96265189  0.33831538  0.81146371    -0.39900
H577        H  0.06406986  0.38354081  0.85874123     0.12900
H578        H  0.05976065  0.41382009  0.90496882     0.12500
H579        H  0.91080495  0.39876308  0.90690528     0.11900
H580        H  0.91504707  0.36747046  0.86040448     0.12200
H581        H  0.95332571  0.42178763  0.95207050     0.14900
H582        H  0.03600478  0.46591349  0.92844126     0.13700
H583        H  0.03224157  0.35034529  0.82065271     0.11400
H584        H  0.92622340  0.34070308  0.81743164     0.13400
C585        C  0.98783125  0.56183030  0.59743985     0.19500
C586        C  0.94709208  0.57185186  0.61248909    -0.18600
C587        C  0.94935186  0.59419533  0.63707039    -0.10900
C588        C  0.99270659  0.60649597  0.64720564     0.21700
C589        C  0.03329708  0.59523195  0.63261454    -0.20300
C590        C  0.03100186  0.57321411  0.60815256    -0.11100
C591        C  0.99847011  0.63149132  0.67232134    -0.15300
C592        C  0.96404397  0.64792553  0.68762761    -0.29100
C593        C  0.98485008  0.53879454  0.57109190    -0.03400
C594        C  0.01705529  0.54035850  0.54995059    -0.39900
H595        H  0.91340984  0.56288567  0.60492751     0.12900
H596        H  0.91721454  0.60172390  0.64779702     0.12500
H597        H  0.06723745  0.60377671  0.64004787     0.11900
H598        H  0.06326133  0.56485721  0.59787585     0.12200
H599        H  0.03421450  0.63783716  0.67792505     0.14900
H600        H  0.92777072  0.64260299  0.68299948     0.13700
H601        H  0.95471740  0.52099415  0.56855700     0.11400
H602        H  0.04437888  0.56103830  0.55081172     0.13400
C603        C  0.02568617  0.62213307  0.85502554     0.19500
C604        C  0.98731496  0.60489386  0.86819205    -0.18600
C605        C  0.99153100  0.58730867  0.89457848    -0.10900
C606        C  0.03454178  0.58614957  0.90863599     0.21700
C607        C  0.07299119  0.60383221  0.89583760    -0.20300
C608        C  0.06877809  0.62153765  0.86917291    -0.11100
C609        C  0.03932043  0.56713070  0.93677693    -0.15300
C610        C  0.01371734  0.53706878  0.94342755    -0.29100
C611        C  0.01719635  0.64186432  0.82754175    -0.03400
C612        C  0.04923837  0.65825808  0.81036049    -0.39900
H613        H  0.95346754  0.60534714  0.85813991     0.12900
H614        H  0.96066630  0.57524943  0.90414985     0.12500
H615        H  0.10640200  0.60369120  0.90639575     0.11900
H616        H  0.09900520  0.63500743  0.86005579     0.12200
H617        H  0.06550364  0.57688494  0.95159461     0.14900
H618        H  0.99081608  0.52566531  0.92732243     0.13700
H619        H  0.98085186  0.64369154  0.82141391     0.11400
H620        H  0.08602405  0.65700324  0.81527378     0.13400
loop_ 
_geom_bond_atom_site_label_1 
_geom_bond_atom_site_label_2 
_geom_bond_distance 
_geom_bond_site_symmetry_2 
_ccdc_geom_bond_type 
C1            C2   1.413       .  A
C1          C316   1.406       .  A
C1          C300   1.491       .  S
C2            C3   1.405       .  A
C2          C264   1.488       .  S
C3          C314   1.406       .  A
C3            H8   1.084   1_455  S
C4            C5   1.419       .  A
C4          C313   1.406   1_554  A
C4          C246   1.486       .  S
C5            C6   1.407   1_554  A
C5          C284   1.486       .  S
C6          C311   1.406       .  A
C6            H7   1.084       .  S
Fe9          O25   2.046       .  S
Fe9          O15   2.053   1_455  S
Fe9          O22   2.055       .  S
Fe9          O14   2.050   1_455  S
Fe9          O20   1.947       .  S
Fe10         O13   2.064       .  S
Fe10         O17   2.088       .  S
Fe10         O21   2.070       .  S
Fe10         O26   2.082       .  S
Fe10         O20   1.957       .  S
Fe11         O29   2.086       .  S
Fe11         O16   2.073       .  S
Fe11         O23   2.076       .  S
Fe11         O12   2.084       .  S
Fe11         O20   1.956   1_655  S
O12          C19   1.274       .  A
O13          C27   1.269   1_455  A
O14          C19   1.270       .  A
O15          C18   1.265       .  A
O16          C28   1.273   1_655  A
O17          C30   1.275       .  A
C18         C210   1.473       .  S
C18          O23   1.269       .  A
C19         C174   1.475       .  S
O21          C24   1.269       .  A
O22          C24   1.265       .  A
C24         C230   1.473       .  S
O25          C30   1.269       .  A
O26          C28   1.274       .  A
C27         C266   1.489       .  S
C27          O29   1.273       .  A
C28         C248   1.489       .  S
C30         C194   1.482       .  S
N31          C36   1.352   1_545  A
N31          C35   1.354       .  A
N31          H63   1.042       .  S
N32          C39   1.351       .  A
N32          C40   1.349       .  A
N33          C38   1.357       .  A
N33          C37   1.356   1_565  A
N33          H64   1.041       .  S
N34          C41   1.353       .  A
N34          C42   1.352       .  A
C35          C43   1.387       .  A
C35          C51   1.417       .  A
C36          C52   1.412       .  A
C36          C44   1.388       .  A
C37          C45   1.387       .  A
C37          C54   1.420       .  A
C38          C53   1.425       .  A
C38          C46   1.388       .  A
C39          C51   1.409       .  A
C39          C47   1.385       .  A
C40          C54   1.409       .  A
C40          C48   1.388       .  A
C41          C49   1.386       .  A
C41          C52   1.414       .  A
C42          C50   1.387       .  A
C42          C53   1.417       .  A
C43          C44   1.373   1_545  A
C43          H55   1.082       .  S
C44          H56   1.081       .  S
C45          C46   1.372   1_545  A
C45          H57   1.080       .  S
C46          H58   1.081       .  S
C47          C48   1.373       .  A
C47          H59   1.082       .  S
C48          H60   1.082       .  S
C49          C50   1.377       .  A
C49          H61   1.082       .  S
C50          H62   1.082       .  S
C51         C212   1.492       .  S
C52         C158   1.487       .  S
C53         C140   1.502       .  S
C54         C228   1.485       .  S
Fe65         O81   2.041       .  S
Fe65         O71   2.064   1_655  S
Fe65         O78   2.067       .  S
Fe65         O70   2.050   1_655  S
Fe65         O76   1.959       .  S
Fe66         O69   2.060       .  S
Fe66         O73   2.086       .  S
Fe66         O77   2.066       .  S
Fe66         O82   2.076       .  S
Fe66         O76   1.969       .  S
Fe67         O85   2.089       .  S
Fe67         O72   2.070       .  S
Fe67         O79   2.073       .  S
Fe67         O68   2.088       .  S
Fe67         O76   1.970   1_455  S
O68          C75   1.276       .  A
O69          C83   1.269   1_655  A
O70          C75   1.271       .  A
O71          C74   1.266       .  A
O72          C84   1.271   1_455  A
O73          C86   1.273       .  A
C74         C138   1.482       .  S
C74          O79   1.268       .  A
C75         C104   1.479       .  S
O77          C80   1.266       .  A
O78          C80   1.268       .  A
C80         C156   1.478       .  S
O81          C86   1.269       .  A
O82          C84   1.270       .  A
C83         C302   1.490       .  S
C83          O85   1.274       .  A
C84         C282   1.486       .  S
C86         C120   1.478       .  S
C87          C88   1.414   1_545  A
C87          C92   1.402       .  A
C87         C192   1.491       .  S
C88          C89   1.405       .  A
C88         C122   1.491       .  S
C89         C400   1.409       .  A
C89          H94   1.078       .  S
C90          C91   1.416   1_565  A
C90         C399   1.409   1_554  A
C90         C102   1.491   1_655  S
C91         C402   1.404   1_554  A
C91         C176   1.494       .  S
C92         C401   1.404       .  A
C92          H93   1.080       .  S
C95          C96   1.404       .  A
C95         C100   1.405       .  A
C95         C103   1.483       .  S
C96          C97   1.395       .  A
C96         H105   1.084       .  S
C97          C98   1.406       .  A
C97         H106   1.080       .  S
C98          C99   1.406       .  A
C98         C101   1.487   1_455  S
C99         C100   1.399       .  A
C99         H107   1.083   1_455  S
C100        H108   1.081       .  S
C101        H109   1.084       .  S
C101        C102   1.350   1_655  D
C102        H110   1.082       .  S
C103        H111   1.088       .  S
C103        C104   1.350       .  D
C104        H112   1.084       .  S
C113        C114   1.406       .  A
C113        C118   1.407       .  A
C113        C121   1.490       .  S
C114        C115   1.401       .  A
C114        H123   1.083       .  S
C115        C116   1.406       .  A
C115        H124   1.081       .  S
C116        C117   1.403       .  A
C116        C119   1.483       .  S
C117        C118   1.393       .  A
C117        H125   1.084       .  S
C118        H126   1.080       .  S
C119        H127   1.088       .  S
C119        C120   1.349       .  D
C120        H128   1.084       .  S
C121        H129   1.085   1_655  S
C121        C122   1.350       .  D
C122        H130   1.081       .  S
C131        C132   1.403       .  A
C131        C136   1.406       .  A
C131        C139   1.487       .  S
C132        C133   1.398       .  A
C132        H141   1.084       .  S
C133        C134   1.407       .  A
C133        H142   1.082       .  S
C134        C135   1.406       .  A
C134        C137   1.491       .  S
C135        C136   1.404       .  A
C135        H143   1.083       .  S
C136        H144   1.082       .  S
C137        H145   1.087       .  S
C137        C138   1.349       .  D
C138        H146   1.086       .  S
C139        H147   1.087       .  S
C139        C140   1.349       .  D
C140        H148   1.086       .  S
C149        C150   1.403       .  A
C149        C154   1.406       .  A
C149        C157   1.485       .  S
C150        C151   1.403       .  A
C150        H159   1.083       .  S
C151        C152   1.408       .  A
C151        H160   1.082       .  S
C152        C153   1.404       .  A
C152        C155   1.488       .  S
C153        C154   1.397       .  A
C153        H161   1.084       .  S
C154        H162   1.083       .  S
C155        H163   1.088       .  S
C155        C156   1.347       .  D
C156        H164   1.085       .  S
C157        H165   1.087       .  S
C157        C158   1.345       .  D
C158        H166   1.086       .  S
C167        C168   1.405       .  A
C167        C172   1.407       .  A
C167        C175   1.486       .  S
C168        C169   1.398       .  A
C168        H177   1.083   1_655  S
C169        C170   1.405       .  A
C169        H178   1.082       .  S
C170        C171   1.403       .  A
C170        C173   1.480       .  S
C171        C172   1.396       .  A
C171        H179   1.084       .  S
C172        H180   1.081       .  S
C173        H181   1.088       .  S
C173        C174   1.348       .  D
C174        H182   1.085       .  S
C175        H183   1.085   1_655  S
C175        C176   1.351       .  D
C176        H184   1.084       .  S
C185        C186   1.403   1_455  A
C185        C190   1.403       .  A
C185        C193   1.478       .  S
C186        C187   1.392       .  A
C186        H195   1.084       .  S
C187        C188   1.405   1_655  A
C187        H196   1.080       .  S
C188        C189   1.408       .  A
C188        C191   1.486       .  S
C189        C190   1.401       .  A
C189        H197   1.083       .  S
C190        H198   1.082       .  S
C191        H199   1.086       .  S
C191        C192   1.352   1_455  D
C192        H200   1.079       .  S
C193        H201   1.087       .  S
C193        C194   1.352       .  D
C194        H202   1.085       .  S
C203        C204   1.401       .  A
C203        C208   1.408       .  A
C203        C211   1.483       .  S
C204        C205   1.393       .  A
C204        H213   1.084       .  S
C205        C206   1.406       .  A
C205        H214   1.082       .  S
C206        C207   1.404       .  A
C206        C209   1.484       .  S
C207        C208   1.402       .  A
C207        H215   1.083       .  S
C208        H216   1.081       .  S
C209        H217   1.087       .  S
C209        C210   1.346       .  D
C210        H218   1.086       .  S
C211        H219   1.088       .  S
C211        C212   1.345       .  D
C212        H220   1.085       .  S
C221        C222   1.404       .  A
C221        C226   1.406       .  A
C221        C229   1.480       .  S
C222        C223   1.402       .  A
C222        H231   1.083       .  S
C223        C224   1.404       .  A
C223        H232   1.083       .  S
C224        C225   1.398       .  A
C224        C227   1.471       .  S
C225        C226   1.393       .  A
C225        H233   1.083       .  S
C226        H234   1.083       .  S
C227        H235   1.087       .  S
C227        C228   1.339       .  D
C228        H236   1.087       .  S
C229        H237   1.087       .  S
C229        C230   1.345       .  D
C230        H238   1.087       .  S
C239        C240   1.406   1_455  A
C239        C244   1.409       .  A
C239        C247   1.493       .  S
C240        C241   1.395       .  A
C240        H249   1.083       .  S
C241        C242   1.404   1_655  A
C241        H250   1.082       .  S
C242        C243   1.406       .  A
C242        C245   1.489       .  S
C243        C244   1.406       .  A
C243        H251   1.083       .  S
C244        H252   1.081       .  S
C245        H253   1.087       .  S
C245        C246   1.349       .  D
C246        H254   1.086   1_455  S
C247        H255   1.087   1_455  S
C247        C248   1.353       .  D
C248        H256   1.084       .  S
C257        C258   1.405   1_655  A
C257        C262   1.409       .  A
C257        C265   1.491       .  S
C258        C259   1.394       .  A
C258        H267   1.084       .  S
C259        C260   1.405   1_455  A
C259        H268   1.082       .  S
C260        C261   1.406       .  A
C260        C263   1.490       .  S
C261        C262   1.406       .  A
C261        H269   1.083       .  S
C262        H270   1.081       .  S
C263        H271   1.086       .  S
C263        C264   1.347   1_655  D
C264        H272   1.086       .  S
C265        H273   1.087   1_655  S
C265        C266   1.354       .  D
C266        H274   1.084       .  S
C275        C276   1.406       .  A
C275        C280   1.404   1_655  A
C275        C283   1.489       .  S
C276        C277   1.405       .  A
C276        H285   1.083       .  S
C277        C278   1.409       .  A
C277        H286   1.081       .  S
C278        C279   1.404   1_655  A
C278        C281   1.491       .  S
C279        C280   1.394       .  A
C279        H287   1.083       .  S
C280        H288   1.082       .  S
C281        H289   1.087   1_655  S
C281        C282   1.351       .  D
C282        H290   1.084       .  S
C283        H291   1.087       .  S
C283        C284   1.349   1_655  D
C284        H292   1.086       .  S
C293        C294   1.405   1_455  A
C293        C298   1.409       .  A
C293        C301   1.491       .  S
C294        C295   1.394       .  A
C294        H303   1.084       .  S
C295        C296   1.405   1_655  A
C295        H304   1.082       .  S
C296        C297   1.406       .  A
C296        C299   1.491       .  S
C297        C298   1.407       .  A
C297        H305   1.083       .  S
C298        H306   1.081       .  S
C299        H307   1.086       .  S
C299        C300   1.347       .  D
C300        H308   1.086   1_455  S
C301        H309   1.087   1_455  S
C301        C302   1.354       .  D
C302        H310   1.084       .  S
C311        C312   1.413       .  A
C311        C610   1.491       .  S
C312        C313   1.405       .  A
C312        C574   1.488       .  S
C313        H318   1.084   1_455  S
C314        C315   1.419       .  A
C314        C556   1.486       .  S
C315        C316   1.407       .  A
C315        C594   1.486       .  S
C316        H317   1.084       .  S
Fe319       O335   2.046       .  S
Fe319       O325   2.053   1_455  S
Fe319       O332   2.055       .  S
Fe319       O324   2.050   1_455  S
Fe319       O330   1.947       .  S
Fe320       O323   2.064       .  S
Fe320       O327   2.088       .  S
Fe320       O331   2.070       .  S
Fe320       O336   2.082       .  S
Fe320       O330   1.957       .  S
Fe321       O339   2.086       .  S
Fe321       O326   2.073       .  S
Fe321       O333   2.076       .  S
Fe321       O322   2.084       .  S
Fe321       O330   1.956   1_655  S
O322        C329   1.274       .  A
O323        C337   1.269   1_455  A
O324        C329   1.270       .  A
O325        C328   1.265       .  A
O326        C338   1.273   1_655  A
O327        C340   1.275       .  A
C328        C520   1.473       .  S
C328        O333   1.269       .  A
C329        C484   1.475       .  S
O331        C334   1.269       .  A
O332        C334   1.265       .  A
C334        C540   1.473       .  S
O335        C340   1.269       .  A
O336        C338   1.274       .  A
C337        C576   1.489       .  S
C337        O339   1.273       .  A
C338        C558   1.489       .  S
C340        C504   1.482       .  S
N341        C346   1.352   1_545  A
N341        C345   1.354       .  A
N341        H373   1.042       .  S
N342        C349   1.351       .  A
N342        C350   1.349       .  A
N343        C348   1.357       .  A
N343        C347   1.356   1_565  A
N343        H374   1.041       .  S
N344        C351   1.353       .  A
N344        C352   1.352       .  A
C345        C353   1.387       .  A
C345        C361   1.417       .  A
C346        C362   1.412       .  A
C346        C354   1.388       .  A
C347        C355   1.387       .  A
C347        C364   1.420       .  A
C348        C363   1.425       .  A
C348        C356   1.388       .  A
C349        C361   1.409       .  A
C349        C357   1.385       .  A
C350        C364   1.409       .  A
C350        C358   1.388       .  A
C351        C359   1.386       .  A
C351        C362   1.414       .  A
C352        C360   1.387       .  A
C352        C363   1.417       .  A
C353        C354   1.373   1_545  A
C353        H365   1.082       .  S
C354        H366   1.081       .  S
C355        C356   1.372   1_545  A
C355        H367   1.080       .  S
C356        H368   1.081       .  S
C357        C358   1.373       .  A
C357        H369   1.082       .  S
C358        H370   1.082       .  S
C359        C360   1.377       .  A
C359        H371   1.082       .  S
C360        H372   1.082       .  S
C361        C522   1.492       .  S
C362        C468   1.487       .  S
C363        C450   1.502       .  S
C364        C538   1.485       .  S
Fe375       O391   2.041       .  S
Fe375       O381   2.064   1_655  S
Fe375       O388   2.067       .  S
Fe375       O380   2.050   1_655  S
Fe375       O386   1.959       .  S
Fe376       O379   2.060       .  S
Fe376       O383   2.086       .  S
Fe376       O387   2.066       .  S
Fe376       O392   2.076       .  S
Fe376       O386   1.969       .  S
Fe377       O395   2.089       .  S
Fe377       O382   2.070       .  S
Fe377       O389   2.073       .  S
Fe377       O378   2.088       .  S
Fe377       O386   1.970   1_455  S
O378        C385   1.276       .  A
O379        C393   1.269   1_655  A
O380        C385   1.271       .  A
O381        C384   1.266       .  A
O382        C394   1.271   1_455  A
O383        C396   1.273       .  A
C384        C448   1.482       .  S
C384        O389   1.268       .  A
C385        C414   1.479       .  S
O387        C390   1.266       .  A
O388        C390   1.268       .  A
C390        C466   1.478       .  S
O391        C396   1.269       .  A
O392        C394   1.270       .  A
C393        C612   1.490       .  S
C393        O395   1.274       .  A
C394        C592   1.486       .  S
C396        C430   1.478       .  S
C397        C398   1.414   1_545  A
C397        C402   1.402       .  A
C397        C502   1.491       .  S
C398        C399   1.405       .  A
C398        C432   1.491       .  S
C399        H404   1.078       .  S
C400        C401   1.416   1_565  A
C400        C412   1.491   1_655  S
C401        C486   1.494       .  S
C402        H403   1.080       .  S
C405        C406   1.404       .  A
C405        C410   1.405       .  A
C405        C413   1.483       .  S
C406        C407   1.395       .  A
C406        H415   1.084       .  S
C407        C408   1.406       .  A
C407        H416   1.080       .  S
C408        C409   1.406       .  A
C408        C411   1.487   1_455  S
C409        C410   1.399       .  A
C409        H417   1.083   1_455  S
C410        H418   1.081       .  S
C411        H419   1.084       .  S
C411        C412   1.350   1_655  D
C412        H420   1.082       .  S
C413        H421   1.088       .  S
C413        C414   1.350       .  D
C414        H422   1.084       .  S
C423        C424   1.406       .  A
C423        C428   1.407       .  A
C423        C431   1.490       .  S
C424        C425   1.401       .  A
C424        H433   1.083       .  S
C425        C426   1.406       .  A
C425        H434   1.081       .  S
C426        C427   1.403       .  A
C426        C429   1.483       .  S
C427        C428   1.393       .  A
C427        H435   1.084       .  S
C428        H436   1.080       .  S
C429        H437   1.088       .  S
C429        C430   1.349       .  D
C430        H438   1.084       .  S
C431        H439   1.085   1_655  S
C431        C432   1.350       .  D
C432        H440   1.081       .  S
C441        C442   1.403       .  A
C441        C446   1.406       .  A
C441        C449   1.487       .  S
C442        C443   1.398       .  A
C442        H451   1.084       .  S
C443        C444   1.407       .  A
C443        H452   1.082       .  S
C444        C445   1.406       .  A
C444        C447   1.491       .  S
C445        C446   1.404       .  A
C445        H453   1.083       .  S
C446        H454   1.082       .  S
C447        H455   1.087       .  S
C447        C448   1.349       .  D
C448        H456   1.086       .  S
C449        H457   1.087       .  S
C449        C450   1.349       .  D
C450        H458   1.086       .  S
C459        C460   1.403       .  A
C459        C464   1.406       .  A
C459        C467   1.485       .  S
C460        C461   1.403       .  A
C460        H469   1.083       .  S
C461        C462   1.408       .  A
C461        H470   1.082       .  S
C462        C463   1.404       .  A
C462        C465   1.488       .  S
C463        C464   1.397       .  A
C463        H471   1.084       .  S
C464        H472   1.083       .  S
C465        H473   1.088       .  S
C465        C466   1.347       .  D
C466        H474   1.085       .  S
C467        H475   1.087       .  S
C467        C468   1.345       .  D
C468        H476   1.086       .  S
C477        C478   1.405       .  A
C477        C482   1.407       .  A
C477        C485   1.486       .  S
C478        C479   1.398       .  A
C478        H487   1.083   1_655  S
C479        C480   1.405       .  A
C479        H488   1.082       .  S
C480        C481   1.403       .  A
C480        C483   1.480       .  S
C481        C482   1.396       .  A
C481        H489   1.084       .  S
C482        H490   1.081       .  S
C483        H491   1.088       .  S
C483        C484   1.348       .  D
C484        H492   1.085       .  S
C485        H493   1.085   1_655  S
C485        C486   1.351       .  D
C486        H494   1.084       .  S
C495        C496   1.403   1_455  A
C495        C500   1.403       .  A
C495        C503   1.478       .  S
C496        C497   1.392       .  A
C496        H505   1.084       .  S
C497        C498   1.405   1_655  A
C497        H506   1.080       .  S
C498        C499   1.408       .  A
C498        C501   1.486       .  S
C499        C500   1.401       .  A
C499        H507   1.083       .  S
C500        H508   1.082       .  S
C501        H509   1.086       .  S
C501        C502   1.352   1_455  D
C502        H510   1.079       .  S
C503        H511   1.087       .  S
C503        C504   1.352       .  D
C504        H512   1.085       .  S
C513        C514   1.401       .  A
C513        C518   1.408       .  A
C513        C521   1.483       .  S
C514        C515   1.393       .  A
C514        H523   1.084       .  S
C515        C516   1.406       .  A
C515        H524   1.082       .  S
C516        C517   1.404       .  A
C516        C519   1.484       .  S
C517        C518   1.402       .  A
C517        H525   1.083       .  S
C518        H526   1.081       .  S
C519        H527   1.087       .  S
C519        C520   1.346       .  D
C520        H528   1.086       .  S
C521        H529   1.088       .  S
C521        C522   1.345       .  D
C522        H530   1.085       .  S
C531        C532   1.404       .  A
C531        C536   1.406       .  A
C531        C539   1.480       .  S
C532        C533   1.402       .  A
C532        H541   1.083       .  S
C533        C534   1.404       .  A
C533        H542   1.083       .  S
C534        C535   1.398       .  A
C534        C537   1.471       .  S
C535        C536   1.393       .  A
C535        H543   1.083       .  S
C536        H544   1.083       .  S
C537        H545   1.087       .  S
C537        C538   1.339       .  D
C538        H546   1.087       .  S
C539        H547   1.087       .  S
C539        C540   1.345       .  D
C540        H548   1.087       .  S
C549        C550   1.406   1_455  A
C549        C554   1.409       .  A
C549        C557   1.493       .  S
C550        C551   1.395       .  A
C550        H559   1.083       .  S
C551        C552   1.404   1_655  A
C551        H560   1.082       .  S
C552        C553   1.406       .  A
C552        C555   1.489       .  S
C553        C554   1.406       .  A
C553        H561   1.083       .  S
C554        H562   1.081       .  S
C555        H563   1.087       .  S
C555        C556   1.349       .  D
C556        H564   1.086   1_455  S
C557        H565   1.087   1_455  S
C557        C558   1.353       .  D
C558        H566   1.084       .  S
C567        C568   1.405   1_655  A
C567        C572   1.409       .  A
C567        C575   1.491       .  S
C568        C569   1.394       .  A
C568        H577   1.084       .  S
C569        C570   1.405   1_455  A
C569        H578   1.082       .  S
C570        C571   1.406       .  A
C570        C573   1.490       .  S
C571        C572   1.406       .  A
C571        H579   1.083       .  S
C572        H580   1.081       .  S
C573        H581   1.086       .  S
C573        C574   1.347   1_655  D
C574        H582   1.086       .  S
C575        H583   1.087   1_655  S
C575        C576   1.354       .  D
C576        H584   1.084       .  S
C585        C586   1.406       .  A
C585        C590   1.404   1_655  A
C585        C593   1.489       .  S
C586        C587   1.405       .  A
C586        H595   1.083       .  S
C587        C588   1.409       .  A
C587        H596   1.081       .  S
C588        C589   1.404   1_655  A
C588        C591   1.491       .  S
C589        C590   1.394       .  A
C589        H597   1.083       .  S
C590        H598   1.082       .  S
C591        H599   1.087   1_655  S
C591        C592   1.351       .  D
C592        H600   1.084       .  S
C593        H601   1.087       .  S
C593        C594   1.349   1_655  D
C594        H602   1.086       .  S
C603        C604   1.405   1_455  A
C603        C608   1.409       .  A
C603        C611   1.491       .  S
C604        C605   1.394       .  A
C604        H613   1.084       .  S
C605        C606   1.405   1_655  A
C605        H614   1.082       .  S
C606        C607   1.406       .  A
C606        C609   1.491       .  S
C607        C608   1.407       .  A
C607        H615   1.083       .  S
C608        H616   1.081       .  S
C609        H617   1.086       .  S
C609        C610   1.347       .  D
C610        H618   1.086   1_455  S
C611        H619   1.087   1_455  S
C611        C612   1.354       .  D
C612        H620   1.084       .  S
