geometry optimzed in LAMMPS
_audit_creation_date              2020-12-01 
_audit_creation_method            'lammps2cif' 
_symmetry_space_group_name_H-M    'P1' 
_symmetry_Int_Tables_number       1 
_symmetry_cell_setting            triclinic 
loop_ 
_symmetry_equiv_pos_as_xyz 
  x,y,z 
_cell_length_a                    30.21139879 
_cell_length_b                    30.22374572155681 
_cell_length_c                    30.236666554119992 
_cell_angle_alpha                 90.02860130524449 
_cell_angle_beta                  90.04632507361346 
_cell_angle_gamma                 90.01769617359905 
loop_ 
_atom_site_label 
_atom_site_type_symbol 
_atom_site_fract_x 
_atom_site_fract_y 
_atom_site_fract_z 
_atom_site_charge 
C1          C  0.66450695  0.72236579  0.71867181     0.80300
N2          N  0.68368933  0.68597572  0.73665674    -0.78000
C3          C  0.72155246  0.66940943  0.71911763     0.82800
N4          N  0.73968751  0.68870917  0.68290469    -0.77900
C5          C  0.72061272  0.72512903  0.66481344     0.82900
N6          N  0.68271022  0.74166535  0.68243006    -0.79600
C7          C  0.66809837  0.45213464  0.72147536     0.80300
N8          N  0.68597005  0.43405580  0.68446665    -0.78000
C9          C  0.72208729  0.45275639  0.66543878     0.82800
N10         N  0.73969581  0.49026589  0.68289046    -0.77900
C11         C  0.72184625  0.50841710  0.71992557     0.82900
N12         N  0.68582556  0.48953285  0.73895048    -0.79600
C13         C  0.50738418  0.44694447  0.72065244     0.80300
N14         N  0.48844796  0.48329445  0.73895299    -0.78000
C15         C  0.45148900  0.50108822  0.72073526     0.82800
N16         N  0.43382650  0.48287530  0.68364767    -0.77900
C17         C  0.45264116  0.44641128  0.66529081     0.82900
N18         N  0.48979593  0.42881912  0.68348235    -0.79600
C19         C  0.50320807  0.71850913  0.72390161     0.80300
N20         N  0.48403521  0.73710154  0.68777549    -0.78000
C21         C  0.44718616  0.71877640  0.66968905     0.82800
N22         N  0.43009968  0.68108585  0.68715861    -0.77900
C23         C  0.44917389  0.66232745  0.72326824     0.82900
N24         N  0.48604439  0.68078714  0.74130051    -0.79600
C25         C  0.44718886  0.66715570  0.45255000     0.80300
N26         N  0.48366456  0.68580574  0.43410156    -0.78000
C27         C  0.50210732  0.72246784  0.45247018     0.82800
N28         N  0.48465346  0.73984536  0.49003387    -0.77900
C29         C  0.44824609  0.72120979  0.50863748     0.82900
N30         N  0.42984209  0.68459917  0.49012239    -0.79600
C31         C  0.71925447  0.66646388  0.44883155     0.80300
N32         N  0.68168290  0.68401437  0.43151292    -0.78000
C33         C  0.66314626  0.72037685  0.45024939     0.82800
N34         N  0.68170800  0.73865056  0.48683268    -0.77900
C35         C  0.71925589  0.72117956  0.50418810     0.82900
N36         N  0.73777710  0.68482256  0.48543599    -0.79600
C37         C  0.66680527  0.45065288  0.44920005     0.80300
N38         N  0.68510079  0.48753870  0.43129369    -0.78000
C39         C  0.72197906  0.50565176  0.44952398     0.82800
N40         N  0.74000173  0.48743568  0.48640234    -0.77900
C41         C  0.72188808  0.45047610  0.50439707     0.82900
N42         N  0.68494622  0.43243443  0.48608247    -0.79600
C43         C  0.78758407  0.58938823  0.78418970     0.80300
N44         N  0.77192699  0.62813199  0.76733830    -0.78000
C45         C  0.73968785  0.62794744  0.73602507     0.82800
N46         N  0.72340907  0.58898619  0.72085081    -0.77900
C47         C  0.73903911  0.55023473  0.73708198     0.82900
N48         N  0.77067847  0.55049530  0.76894289    -0.79600
C49         C  0.38600565  0.57967304  0.78766830     0.80300
N50         N  0.40233379  0.54124850  0.77091874    -0.78000
C51         C  0.43345990  0.54222769  0.73859763     0.82800
N52         N  0.44858693  0.58162523  0.72328136    -0.77900
C53         C  0.43255448  0.62007261  0.74002241     0.82900
N54         N  0.40113424  0.61907990  0.77206694    -0.79600
C55         C  0.78455497  0.58681832  0.38253655     0.80300
N56         N  0.76750346  0.62545047  0.39827619    -0.78000
C57         C  0.73690608  0.62511875  0.43113989     0.82800
N58         N  0.72263652  0.58610795  0.44798373    -0.77900
C59         C  0.73909550  0.54745474  0.43236917     0.82900
N60         N  0.77014223  0.54784559  0.39996710    -0.79600
C61         C  0.38322909  0.58596092  0.38649124     0.80300
N62         N  0.39984946  0.54726039  0.40239100    -0.78000
C63         C  0.43129927  0.54755633  0.43446244     0.82800
N64         N  0.44630437  0.58661313  0.45071334    -0.77900
C65         C  0.42998775  0.62537882  0.43506428     0.82900
N66         N  0.39852334  0.62507079  0.40291804    -0.79600
O67         O  0.03840749  0.61975744  0.13117491    -0.72800
O68         O  0.13332722  0.61862237  0.03799044    -0.73800
O69         O  0.03969989  0.61972732  0.03716942    -0.62400
O70         O  0.13262107  0.61919052  0.13214472    -0.70900
O71         O  0.13298102  0.54577591  0.13174308    -0.70400
O72         O  0.03775370  0.54628882  0.03829326    -0.61700
O73         O  0.13195318  0.54532130  0.03793040    -0.74200
O74         O  0.03875669  0.54634458  0.13231629    -0.73000
Cu75       Cu  0.08603662  0.62187230  0.08466070     1.04600
Cu76       Cu  0.08533063  0.54337226  0.08508849     1.04300
C77         C  0.02363398  0.58318648  0.14646509     0.93400
C78         C  0.14748222  0.58168585  0.02299816     0.92500
C79         C  0.02409224  0.58319074  0.02276419     0.84600
C80         C  0.14770747  0.58250233  0.14676211     0.90900
C81         C  0.58475443  0.78596591  0.78571463     0.80300
N82         N  0.62332307  0.77125482  0.76798246    -0.78000
C83         C  0.62291226  0.73899923  0.73681169     0.82800
N84         N  0.58383464  0.72154812  0.72313220    -0.77900
C85         C  0.54513484  0.73624515  0.74057702     0.82900
N86         N  0.54558297  0.76845293  0.77196650    -0.79600
C87         C  0.58935908  0.38829851  0.79009311     0.80300
N88         N  0.62779316  0.40516449  0.77371414    -0.78000
C89         C  0.62703008  0.43423132  0.73950372     0.82800
N90         N  0.58781775  0.44701796  0.72188265    -0.77900
C91         C  0.54937628  0.43071512  0.73817064     0.82900
N92         N  0.55014681  0.40138361  0.77212186    -0.79600
C93         C  0.58279742  0.78774944  0.38725870     0.80300
N94         N  0.54385379  0.77240144  0.40401557    -0.78000
C95         C  0.54374184  0.73980209  0.43494475     0.82800
N96         N  0.58258388  0.72274970  0.44958437    -0.77900
C97         C  0.62147597  0.73789994  0.43319987     0.82900
N98         N  0.62153781  0.77014234  0.40202006    -0.79600
C99         C  0.58516952  0.38677440  0.38367928     0.80300
N100        N  0.62437747  0.40225720  0.39966960    -0.78000
C101        C  0.62485907  0.43373140  0.43177138     0.82800
N102        N  0.58613979  0.44989686  0.44776062    -0.77900
C103        C  0.54696842  0.43470807  0.43186905     0.82900
N104        N  0.54651821  0.40309290  0.39998686    -0.79600
O105        O  0.55005916  0.03680524  0.03980244    -0.72800
O106        O  0.54753778  0.13246214  0.13237236    -0.73800
O107        O  0.54738161  0.13132211  0.03826662    -0.62400
O108        O  0.54985524  0.03853760  0.13401133    -0.70900
O109        O  0.62327633  0.03800613  0.13202585    -0.70400
O110        O  0.62068712  0.13477385  0.04044844    -0.61700
O111        O  0.62092957  0.13225055  0.13426093    -0.74200
O112        O  0.62287750  0.04067655  0.03763765    -0.73000
Cu113      Cu  0.54616757  0.08464420  0.08605138     1.04600
Cu114      Cu  0.62448099  0.08641604  0.08605033     1.04300
C115        C  0.58679850  0.02371605  0.02343293     0.93400
C116        C  0.58390762  0.14723880  0.14819303     0.92500
C117        C  0.58373353  0.14841526  0.02499464     0.84600
C118        C  0.58687127  0.02365806  0.14808335     0.90900
C119        C  0.50545288  0.45174159  0.44997021     0.80300
N120        N  0.48724901  0.43231150  0.48610747    -0.78000
C121        C  0.45001261  0.44935426  0.50454857     0.82800
N122        N  0.43150893  0.48651665  0.48738358    -0.77900
C123        C  0.44961192  0.50603312  0.45121318     0.82900
N124        N  0.48683767  0.48885399  0.43279201    -0.79600
C125        C  0.78641151  0.78722489  0.58229312     0.80300
N126        N  0.76984860  0.77312672  0.62174139    -0.78000
C127        C  0.73722921  0.74220746  0.62281482     0.82800
N128        N  0.72100564  0.72541665  0.58451988    -0.77900
C129        C  0.73738589  0.73917200  0.54517219     0.82900
N130        N  0.77013166  0.76983166  0.54408288    -0.79600
C131        C  0.38140312  0.78418563  0.58948674     0.80300
N132        N  0.39692765  0.76732632  0.62831608    -0.78000
C133        C  0.42952036  0.73634204  0.62819363     0.82800
N134        N  0.44636214  0.72175680  0.58926004    -0.77900
C135        C  0.43101848  0.73823564  0.55047661     0.82900
N136        N  0.39884267  0.76950175  0.55068386    -0.79600
C137        C  0.78560388  0.38480037  0.58587838     0.80300
N138        N  0.77008892  0.40190064  0.62452101    -0.78000
C139        C  0.73942163  0.43472614  0.62404307     0.82800
N140        N  0.72397823  0.45031999  0.58491835    -0.77900
C141        C  0.73907303  0.43329452  0.54625322     0.82900
N142        N  0.76993910  0.40062543  0.54672420    -0.79600
C143        C  0.38669678  0.38179851  0.58476955     0.80300
N144        N  0.40403834  0.39681115  0.62354886    -0.78000
C145        C  0.43543358  0.42890874  0.62363805     0.82800
N146        N  0.45002770  0.44589008  0.58483840    -0.77900
C147        C  0.43327849  0.43100376  0.54599000     0.82900
N148        N  0.40148210  0.39920976  0.54593002    -0.79600
O149        O  0.03871892  0.04023179  0.54360167    -0.72800
O150        O  0.13195335  0.13437289  0.54847885    -0.73800
O151        O  0.13276623  0.04039634  0.54504759    -0.62400
O152        O  0.03788993  0.13391463  0.54708867    -0.70900
O153        O  0.03824935  0.13226283  0.62045259    -0.70400
O154        O  0.13038204  0.03669766  0.61837870    -0.61700
O155        O  0.13234387  0.13057823  0.62182895    -0.74200
O156        O  0.03702895  0.03862578  0.61693506    -0.73000
Cu157      Cu  0.08542252  0.08735656  0.54346330     1.04600
Cu158      Cu  0.08450143  0.08450681  0.62193705     1.04300
C159        C  0.02296424  0.02470723  0.57958709     0.93400
C160        C  0.14700626  0.14714966  0.58585617     0.92500
C161        C  0.14598332  0.02341840  0.58144619     0.84600
C162        C  0.02303440  0.14775540  0.58417822     0.90900
C163        C  0.28509510  0.31455819  0.61902952    -0.05400
C164        C  0.28471332  0.28093111  0.58681459     0.08800
C165        C  0.31748000  0.28021304  0.55368951    -0.02700
C166        C  0.35115541  0.31261976  0.55320434    -0.01000
C167        C  0.35133364  0.34712620  0.58507075    -0.04600
C168        C  0.31749420  0.34812621  0.61762557     0.02400
C169        C  0.24905261  0.24665233  0.58726813     0.09200
C170        C  0.31633158  0.24596984  0.52005059     0.35100
C171        C  0.31450587  0.38461649  0.64867873     0.38600
C172        C  0.20892159  0.25447553  0.56472812    -0.05000
C173        C  0.17515323  0.22230476  0.56513560     0.02200
C174        C  0.18175236  0.18169539  0.58731083    -0.04600
C175        C  0.22178308  0.17408783  0.61031907    -0.00800
C176        C  0.25519789  0.20669225  0.61056476    -0.03400
C177        C  0.20243467  0.29579862  0.54124211     0.35900
C178        C  0.22916398  0.13223578  0.63263988     0.39500
C179        C  0.13291929  0.23171271  0.54423814     0.38600
C180        C  0.29592764  0.19931229  0.63487676     0.35500
C181        C  0.25194249  0.31445804  0.65374449     0.36200
C182        C  0.38622185  0.30929059  0.52059807     0.39500
N183        N  0.09906883  0.23920985  0.52793856    -0.38600
N184        N  0.19735997  0.32877600  0.52248172    -0.40200
N185        N  0.23502935  0.09879218  0.65033349    -0.37900
N186        N  0.32836275  0.19358105  0.65443224    -0.40300
N187        N  0.31512453  0.21869960  0.49318571    -0.40100
N188        N  0.41412525  0.30640185  0.49455911    -0.37700
N189        N  0.31189052  0.41379116  0.67336017    -0.38800
N190        N  0.22564044  0.31406818  0.68153614    -0.40400
C191        C  0.91540895  0.20935444  0.56031055    -0.05400
C192        C  0.91935326  0.24619044  0.58871954     0.08800
C193        C  0.95710529  0.25051775  0.61586323    -0.02700
C194        C  0.99153127  0.21906168  0.61346034    -0.01000
C195        C  0.98753759  0.18186511  0.58531360    -0.04600
C196        C  0.94907148  0.17698284  0.55899442     0.02400
C197        C  0.88481476  0.28174525  0.58829211     0.09200
C198        C  0.96033847  0.28738258  0.64641691     0.35100
C199        C  0.94345187  0.13808265  0.53140429     0.38600
C200        C  0.84572498  0.27722725  0.61338071    -0.05000
C201        C  0.81279251  0.31034963  0.61174135     0.02200
C202        C  0.81962719  0.34917886  0.58650151    -0.04600
C203        C  0.85929101  0.35397754  0.56213372    -0.00800
C204        C  0.89128852  0.31998494  0.56235377    -0.03400
C205        C  0.83962948  0.23859109  0.64113222     0.35900
C206        C  0.86806844  0.39456930  0.53810162     0.39500
C207        C  0.77112535  0.30358417  0.63459416     0.38600
C208        C  0.93098732  0.32412907  0.53570618     0.35500
C209        C  0.87667303  0.20499655  0.53227073     0.36200
C210        C  0.03201466  0.22622444  0.63831236     0.39500
N211        N  0.73770202  0.29809842  0.65245243    -0.38600
N212        N  0.83489926  0.20790371  0.66351290    -0.40200
N213        N  0.87526281  0.42705066  0.51916595    -0.37900
N214        N  0.96263036  0.32710798  0.51437196    -0.40300
N215        N  0.96268189  0.31662056  0.67103262    -0.40100
N216        N  0.06453199  0.23207683  0.65772034    -0.37700
N217        N  0.93891306  0.10698991  0.50950346    -0.38800
N218        N  0.84573081  0.20167658  0.50992479    -0.40400
C219        C  0.31235874  0.88641340  0.61851597    -0.05400
C220        C  0.27881437  0.88452397  0.58607261     0.08800
C221        C  0.27834191  0.84939122  0.55541980    -0.02700
C222        C  0.31120469  0.81625880  0.55704279    -0.01000
C223        C  0.34547794  0.81826959  0.58914180    -0.04600
C224        C  0.34560047  0.85358558  0.62006073     0.02400
C225        C  0.24419240  0.91997204  0.58383850     0.09200
C226        C  0.24406858  0.84764482  0.52179477     0.35100
C227        C  0.38070346  0.85737570  0.65264841     0.38600
C228        C  0.25441219  0.96155485  0.56514394    -0.05000
C229        C  0.22215606  0.99529602  0.56380285     0.02200
C230        C  0.17944150  0.98757975  0.58107651    -0.04600
C231        C  0.16886506  0.94563499  0.59877573    -0.00800
C232        C  0.20116117  0.91195276  0.60019822    -0.03400
C233        C  0.29820066  0.96946784  0.54717822     0.35900
C234        C  0.12429573  0.93674092  0.61433203     0.39500
C235        C  0.23327512  0.03833116  0.54571010     0.38600
C236        C  0.19012343  0.86892282  0.61832671     0.35500
C237        C  0.31286293  0.92262656  0.65003858     0.36200
C238        C  0.30881516  0.77960063  0.52611564     0.39500
N239        N  0.24210989  0.07269112  0.53131398    -0.38600
N240        N  0.33319142  0.97563014  0.53290944    -0.40200
N241        N  0.08867842  0.92967211  0.62650559    -0.37900
N242        N  0.18126684  0.83448730  0.63252220    -0.40300
N243        N  0.21668108  0.84630420  0.49505924    -0.40100
N244        N  0.30691109  0.75045009  0.50132966    -0.37700
N245        N  0.40858400  0.86048244  0.67873015    -0.38800
N246        N  0.31330603  0.95167391  0.67499956    -0.40400
C247        C  0.85326378  0.88864276  0.54738789    -0.05400
C248        C  0.88846106  0.88755091  0.57793022     0.08800
C249        C  0.89065646  0.85346274  0.60962466    -0.02700
C250        C  0.85798584  0.82013013  0.61052754    -0.01000
C251        C  0.82175413  0.82169044  0.58074148    -0.04600
C252        C  0.81953920  0.85644509  0.54928892     0.02400
C253        C  0.92271235  0.92317265  0.57757454     0.09200
C254        C  0.92661900  0.85297982  0.64147607     0.35100
C255        C  0.78172417  0.86046011  0.51993778     0.38600
C256        C  0.91887457  0.95931194  0.60680299    -0.05000
C257        C  0.95111885  0.99297505  0.60680829     0.02200
C258        C  0.98806308  0.99015755  0.57819114    -0.04600
C259        C  0.99183042  0.95378534  0.54890792    -0.00800
C260        C  0.95899887  0.92061959  0.54839487    -0.03400
C261        C  0.88171170  0.96161669  0.63707890     0.35900
C262        C  0.03031804  0.94938389  0.52054726     0.39500
C263        C  0.94542059  0.03113848  0.63541679     0.38600
C264        C  0.96272462  0.88347938  0.51822045     0.35500
C265        C  0.85168928  0.92326686  0.51418233     0.36200
C266        C  0.86279279  0.78351071  0.64115428     0.39500
N267        N  0.94085735  0.06162587  0.65813429    -0.38600
N268        N  0.85217992  0.96321221  0.66137944    -0.40200
N269        N  0.06109643  0.94584298  0.49804872    -0.37900
N270        N  0.96560373  0.85390677  0.49407136    -0.40300
N271        N  0.95520070  0.85301229  0.66697802    -0.40100
N272        N  0.86690060  0.75425950  0.66550577    -0.37700
N273        N  0.75153812  0.86385062  0.49660090    -0.38800
N274        N  0.85069220  0.95073080  0.48754104    -0.40400
C275        C  0.55513371  0.25297256  0.21104596    -0.05400
C276        C  0.58242544  0.24917463  0.24874945     0.08800
C277        C  0.60963837  0.21156456  0.25380649    -0.02700
C278        C  0.60971881  0.17799603  0.22131199    -0.01000
C279        C  0.58315919  0.18218727  0.18295753    -0.04600
C280        C  0.55591750  0.21996825  0.17797721     0.02400
C281        C  0.58264780  0.28489839  0.28320754     0.09200
C282        C  0.63748962  0.20742586  0.29268926     0.35100
C283        C  0.52984966  0.22581983  0.13807243     0.38600
C284        C  0.55892766  0.27925778  0.32299315    -0.05000
C285        C  0.55998169  0.31238147  0.35590811     0.02200
C286        C  0.58442217  0.35173243  0.34907544    -0.04600
C287        C  0.60781184  0.35752272  0.30898772    -0.00800
C288        C  0.60700204  0.32416526  0.27626387    -0.03400
C289        C  0.53336281  0.23923702  0.32996148     0.35900
C290        C  0.63167373  0.39836898  0.30076588     0.39500
C291        C  0.53705985  0.30522547  0.39745063     0.38600
C292        C  0.63123321  0.33016090  0.23530826     0.35500
C293        C  0.52594318  0.29079571  0.20655605     0.36200
C294        C  0.63601235  0.13842583  0.22821708     0.39500
N295        N  0.51889725  0.29954346  0.43065639    -0.38600
N296        N  0.51300181  0.20727529  0.33544800    -0.40200
N297        N  0.65062120  0.43099400  0.29419629    -0.37900
N298        N  0.65043941  0.33490591  0.20255004    -0.40300
N299        N  0.65957985  0.20419451  0.32380097    -0.40100
N300        N  0.65681283  0.10675631  0.23378954    -0.37700
N301        N  0.50923278  0.23052930  0.10614559    -0.38800
N302        N  0.50254049  0.32091256  0.20314559    -0.40400
C303        C  0.56638131  0.96672421  0.25866215    -0.05400
C304        C  0.58688277  0.92533452  0.25188014     0.08800
C305        C  0.60810197  0.91648232  0.21127013    -0.02700
C306        C  0.60838474  0.94862880  0.17738571    -0.01000
C307        C  0.58742783  0.98993304  0.18390060    -0.04600
C308        C  0.56661272  0.99891551  0.22481911     0.02400
C309        C  0.58535312  0.89055173  0.28719079     0.09200
C310        C  0.62931707  0.87398932  0.20435214     0.35100
C311        C  0.54628500  0.04172469  0.23250211     0.38600
C312        C  0.55304809  0.85691488  0.28544209    -0.05000
C313        C  0.55218735  0.82329916  0.31785467     0.02200
C314        C  0.58323350  0.82354004  0.35307138    -0.04600
C315        C  0.61516650  0.85795776  0.35503626    -0.00800
C316        C  0.61644060  0.89092309  0.32197078    -0.03400
C317        C  0.52073405  0.85689156  0.24992071     0.35900
C318        C  0.64611614  0.86048775  0.39169380     0.39500
C319        C  0.52025370  0.78765922  0.31370203     0.38600
C320        C  0.64997569  0.92525819  0.32350895     0.35500
C321        C  0.54488432  0.97601373  0.30051464     0.36200
C322        C  0.62875556  0.93838298  0.13522517     0.39500
N323        N  0.49476705  0.75925408  0.31028791    -0.38600
N324        N  0.49499229  0.85700696  0.22156398    -0.40200
N325        N  0.67081388  0.86253249  0.42090246    -0.37900
N326        N  0.67677503  0.95260349  0.32468875    -0.40300
N327        N  0.64612377  0.84000497  0.19899140    -0.43400
N328        N  0.64490645  0.92975096  0.10163835    -0.37700
N329        N  0.53015357  0.07592003  0.23857657    -0.38800
N330        N  0.52782352  0.98334922  0.33397496    -0.40400
C331        C  0.62077015  0.28848295  0.86136195    -0.05400
C332        C  0.58779857  0.28985548  0.89429688     0.08800
C333        C  0.55670823  0.32461555  0.89438399    -0.02700
C334        C  0.55817010  0.35761274  0.86136894    -0.01000
C335        C  0.59000104  0.35534067  0.82697614    -0.04600
C336        C  0.62167507  0.32068401  0.82754999     0.02400
C337        C  0.58547229  0.25411366  0.92856629     0.09200
C338        C  0.52298392  0.32618104  0.92845855     0.35100
C339        C  0.65438757  0.31689976  0.79263002     0.38600
C340        C  0.60860548  0.25860265  0.96884062    -0.05000
C341        C  0.60705086  0.22452446  0.00072376     0.02200
C342        C  0.58330454  0.18507424  0.99205832    -0.04600
C343        C  0.55966610  0.18092417  0.95184925    -0.00800
C344        C  0.56048240  0.21550759  0.92043283    -0.03400
C345        C  0.63413717  0.29834994  0.97731564     0.35900
C346        C  0.53571811  0.14054817  0.94194524     0.39500
C347        C  0.62848703  0.23084649  0.04323239     0.38600
C348        C  0.53577305  0.21144092  0.87946641     0.35500
C349        C  0.65365990  0.25352318  0.86218656     0.36200
C350        C  0.52770592  0.39466352  0.86388586     0.39500
N351        N  0.64521906  0.23590630  0.07730508    -0.38600
N352        N  0.65460027  0.33004343  0.98395942    -0.40200
N353        N  0.51661662  0.10840486  0.93365360    -0.37900
N354        N  0.51600632  0.20847922  0.84680091    -0.40300
N355        N  0.49600062  0.32732986  0.95558107    -0.40100
N356        N  0.50354551  0.42429848  0.86599020    -0.37700
N357        N  0.68055259  0.31385978  0.76484196    -0.38800
N358        N  0.67998136  0.22573191  0.86299417    -0.40400
C359        C  0.59874211  0.89819090  0.84072145    -0.05400
C360        C  0.58916832  0.88787514  0.88521267     0.08800
C361        C  0.57846256  0.84398728  0.89702845    -0.02700
C362        C  0.57674273  0.81064781  0.86441682    -0.01000
C363        C  0.58570932  0.82107665  0.81983157    -0.04600
C364        C  0.59703956  0.86484484  0.80808598     0.02400
C365        C  0.58913102  0.92343115  0.91969247     0.09200
C366        C  0.56939952  0.83326018  0.94288036     0.35100
C367        C  0.60626089  0.87562824  0.76226157     0.38600
C368        C  0.55023716  0.94758001  0.92797076    -0.05000
C369        C  0.54905705  0.97964339  0.96194054     0.02200
C370        C  0.58758371  0.98885771  0.98764698    -0.04600
C371        C  0.62689883  0.96439928  0.97846959    -0.00800
C372        C  0.62736670  0.93184073  0.94490368    -0.03400
C373        C  0.51118669  0.93920208  0.90119133     0.35900
C374        C  0.66709468  0.97136162  0.00385821     0.39500
C375        C  0.50769775  0.00272944  0.96973787     0.38600
C376        C  0.66725962  0.90649310  0.93632863     0.35500
C377        C  0.61030394  0.94315193  0.82863902     0.36200
C378        C  0.56687694  0.76536954  0.87687136     0.39500
N379        N  0.47435547  0.02057250  0.97587235    -0.38600
N380        N  0.48024964  0.93250986  0.87961744    -0.40200
N381        N  0.69937859  0.97667162  0.02379977    -0.37900
N382        N  0.69899430  0.88617328  0.92948016    -0.40300
N383        N  0.56230124  0.82488131  0.97953620    -0.40100
N384        N  0.55919865  0.72920079  0.88679915    -0.37700
N385        N  0.61354767  0.88408586  0.72565697    -0.38800
N386        N  0.61958523  0.97902699  0.81901941    -0.40400
C387        C  0.32176450  0.61021492  0.27876140    -0.05400
C388        C  0.28383310  0.58333322  0.28331396     0.08800
C389        C  0.27876243  0.55699026  0.32147668    -0.02700
C390        C  0.31075101  0.55843804  0.35551232    -0.01000
C391        C  0.34886750  0.58534209  0.35107643    -0.04600
C392        C  0.35436329  0.61093913  0.31227293     0.02400
C393        C  0.24886507  0.58308492  0.24806798     0.09200
C394        C  0.24072362  0.52795869  0.32538187     0.35100
C395        C  0.39433366  0.63680055  0.30595314     0.38600
C396        C  0.25447109  0.55741881  0.20946971    -0.05000
C397        C  0.22169104  0.55754875  0.17612930     0.02200
C398        C  0.18254797  0.58264089  0.18160137    -0.04600
C399        C  0.17684399  0.60802716  0.22050616    -0.00800
C400        C  0.21000634  0.60843454  0.25343117    -0.03400
C401        C  0.29395861  0.53064996  0.20431648     0.35900
C402        C  0.13620990  0.63266738  0.22737423     0.39500
C403        C  0.22909441  0.53317308  0.13544485     0.38600
C404        C  0.20415797  0.63486808  0.29305604     0.35500
C405        C  0.32731152  0.63693049  0.23931845     0.36200
C406        C  0.30356210  0.53327470  0.39572692     0.39500
N407        N  0.23508249  0.51396755  0.10287726    -0.38600
N408        N  0.32547078  0.50924074  0.20039414    -0.40200
N409        N  0.10370929  0.65219490  0.23281460    -0.37900
N410        N  0.19954428  0.65587907  0.32471677    -0.40300
N411        N  0.21047755  0.50464001  0.32827348    -0.40100
N412        N  0.29774931  0.51333726  0.42787478    -0.37700
N413        N  0.42631455  0.65726281  0.30087305    -0.38800
N414        N  0.33173467  0.65813339  0.20777023    -0.40400
C415        C  0.88489884  0.61944400  0.31209056    -0.05400
C416        C  0.88600261  0.58479865  0.28092360     0.08800
C417        C  0.85308057  0.55180205  0.28186631    -0.02700
C418        C  0.81917128  0.55327301  0.31393994    -0.01000
C419        C  0.81886987  0.58696781  0.34672362    -0.04600
C420        C  0.85197975  0.62034263  0.34520356     0.02400
C421        C  0.92128085  0.58385873  0.24616375     0.09200
C422        C  0.85391738  0.51651974  0.24931541     0.35100
C423        C  0.85322490  0.65533884  0.37805296     0.38600
C424        C  0.95976571  0.55812983  0.25227117    -0.05000
C425        C  0.99326935  0.55788002  0.21974257     0.02200
C426        C  0.98844942  0.58343625  0.18082452    -0.04600
C427        C  0.94971341  0.60900913  0.17473790    -0.00800
C428        C  0.91632376  0.60921278  0.20732755    -0.03400
C429        C  0.96502183  0.53228932  0.29234735     0.35900
C430        C  0.94343466  0.63405441  0.13428658     0.39500
C431        C  0.03335940  0.53247142  0.22707957     0.38600
C432        C  0.87663149  0.63544900  0.20100518     0.35500
C433        C  0.91776071  0.65440728  0.30979932     0.36200
C434        C  0.78354060  0.52111882  0.31154087     0.39500
N435        N  0.06539875  0.51228460  0.23286864    -0.38600
N436        N  0.96920747  0.51166916  0.32431333    -0.40200
N437        N  0.93838673  0.65396004  0.10199217    -0.37900
N438        N  0.84492099  0.65638388  0.19621843    -0.40300
N439        N  0.85470361  0.48832525  0.22341647    -0.40100
N440        N  0.75503920  0.49560479  0.30939309    -0.37700
N441        N  0.85430816  0.68346200  0.40403551    -0.38800
N442        N  0.94380528  0.68240119  0.30761519    -0.40400
C443        C  0.27601013  0.59710405  0.84610737    -0.05400
C444        C  0.28417308  0.57700994  0.88741818     0.08800
C445        C  0.32557436  0.55706617  0.89576675    -0.02700
C446        C  0.35898377  0.55789510  0.86318428    -0.01000
C447        C  0.35104846  0.57861526  0.82203803    -0.04600
C448        C  0.30940038  0.59812007  0.81358736     0.02400
C449        C  0.24932199  0.57781783  0.92251808     0.09200
C450        C  0.33361304  0.53563625  0.93792637     0.35100
C451        C  0.30055549  0.61844930  0.77103062     0.38600
C452        C  0.21414660  0.54721253  0.92139866    -0.05000
C453        C  0.18025842  0.54922661  0.95340706     0.02200
C454        C  0.18228356  0.58083065  0.98803665    -0.04600
C455        C  0.21805955  0.61115867  0.98927029    -0.00800
C456        C  0.25103299  0.60996960  0.95627640    -0.03400
C457        C  0.21301912  0.51350693  0.88722732     0.35900
C458        C  0.22193729  0.64288401  0.02510770     0.39500
C459        C  0.14243238  0.51988852  0.94936757     0.38600
C460        C  0.28686976  0.64193958  0.95688124     0.35500
C461        C  0.23304824  0.61653805  0.83707495     0.36200
C462        C  0.40200642  0.53875090  0.87258970     0.39500
N463        N  0.11215078  0.49665898  0.94595678    -0.38600
N464        N  0.21231608  0.48654663  0.86004868    -0.40200
N465        N  0.22512105  0.66818752  0.05367463    -0.37900
N466        N  0.31548142  0.66740927  0.95720068    -0.40300
N467        N  0.33987581  0.51852620  0.97158799    -0.40100
N468        N  0.43637140  0.52362022  0.88016058    -0.37700
N469        N  0.29360958  0.63467016  0.73706360    -0.38800
N470        N  0.19864368  0.63174639  0.82987599    -0.40400
C471        C  0.85684437  0.62166706  0.88550481    -0.05400
C472        C  0.88979356  0.58868540  0.88517347     0.08800
C473        C  0.88992390  0.55652954  0.85144951    -0.02700
C474        C  0.85682260  0.55674483  0.81849314    -0.01000
C475        C  0.82302582  0.58942080  0.81889933    -0.04600
C476        C  0.82343384  0.62199253  0.85279691     0.02400
C477        C  0.92432761  0.58743901  0.92070604     0.09200
C478        C  0.92460839  0.52333007  0.85056554     0.35100
C479        C  0.78877159  0.65513504  0.85532924     0.38600
C480        C  0.91529687  0.56635306  0.96136452    -0.05000
C481        C  0.94803974  0.56450906  0.99464464     0.02200
C482        C  0.98997679  0.58389302  0.98745388    -0.04600
C483        C  0.99905041  0.60477309  0.94662118    -0.00800
C484        C  0.96629757  0.60653227  0.91337705    -0.03400
C485        C  0.87220677  0.54656706  0.96881938     0.35900
C486        C  0.04260475  0.62321059  0.93827015     0.39500
C487        C  0.93816042  0.54372288  0.03674179     0.38600
C488        C  0.97573242  0.62777247  0.87142358     0.35500
C489        C  0.85754863  0.65544901  0.91961797     0.36200
C490        C  0.85854840  0.52364868  0.78373733     0.39500
N491        N  0.93033023  0.52719884  0.07035803    -0.38600
N492        N  0.83776055  0.53086271  0.97464834    -0.40200
N493        N  0.07741900  0.63774201  0.93161563    -0.37900
N494        N  0.98315357  0.64459180  0.83786580    -0.40300
N495        N  0.95245818  0.49706232  0.84982903    -0.40100
N496        N  0.85991208  0.49703267  0.75623441    -0.37700
N497        N  0.76123138  0.68166947  0.85744939    -0.38800
N498        N  0.85825052  0.68244157  0.94676879    -0.40400
loop_ 
_geom_bond_atom_site_label_1 
_geom_bond_atom_site_label_2 
_geom_bond_distance 
_geom_bond_site_symmetry_2 
_ccdc_geom_bond_type 
C1            N2   1.357       .  A
C1            N6   1.358       .  A
C1           C83   1.461       .  S
N2            C3   1.357       .  A
C3            N4   1.357       .  A
C3           C45   1.460       .  S
N4            C5   1.358       .  A
C5            N6   1.359       .  A
C5          C127   1.460       .  S
C7            N8   1.358       .  A
C7           N12   1.357       .  A
C7           C89   1.460       .  S
N8            C9   1.357       .  A
C9           N10   1.358       .  A
C9          C139   1.462       .  S
N10          C11   1.359       .  A
C11          N12   1.357       .  A
C11          C47   1.461       .  S
C13          N14   1.357       .  A
C13          N18   1.358       .  A
C13          C91   1.460       .  S
N14          C15   1.356       .  A
C15          N16   1.358       .  A
C15          C51   1.461       .  S
N16          C17   1.359       .  A
C17          N18   1.358       .  A
C17         C145   1.461       .  S
C19          N20   1.358       .  A
C19          N24   1.359       .  A
C19          C85   1.464       .  S
N20          C21   1.358       .  A
C21          N22   1.358       .  A
C21         C133   1.463       .  S
N22          C23   1.358       .  A
C23          N24   1.359       .  A
C23          C53   1.463       .  S
C25          N26   1.358       .  A
C25          N30   1.358       .  A
C25          C65   1.464       .  S
N26          C27   1.358       .  A
C27          N28   1.358       .  A
C27          C95   1.462       .  S
N28          C29   1.358       .  A
C29          N30   1.358       .  A
C29         C135   1.462       .  S
C31          N32   1.358       .  A
C31          N36   1.358       .  A
C31          C57   1.460       .  S
N32          C33   1.357       .  A
C33          N34   1.357       .  A
C33          C97   1.460       .  S
N34          C35   1.357       .  A
C35          N36   1.357       .  A
C35         C129   1.459       .  S
C37          N38   1.357       .  A
C37          N42   1.359       .  A
C37         C101   1.464       .  S
N38          C39   1.358       .  A
C39          N40   1.357       .  A
C39          C59   1.461       .  S
N40          C41   1.358       .  A
C41          N42   1.359       .  A
C41         C141   1.463       .  S
C43          N44   1.362       .  A
C43          N48   1.362       .  A
C43         C475   1.499       .  S
N44          C45   1.358       .  A
C45          N46   1.356       .  A
N46          C47   1.355       .  A
C47          N48   1.357       .  A
C49          N50   1.360       .  A
C49          N54   1.360       .  A
C49         C447   1.483       .  S
N50          C51   1.357       .  A
C51          N52   1.357       .  A
N52          C53   1.357       .  A
C53          N54   1.357       .  A
C55          N56   1.362       .  A
C55          N60   1.362       .  A
C55         C419   1.500       .  S
N56          C57   1.358       .  A
C57          N58   1.355       .  A
N58          C59   1.355       .  A
C59          N60   1.357       .  A
C61          N62   1.361       .  A
C61          N66   1.362       .  A
C61         C391   1.491       .  S
N62          C63   1.357       .  A
C63          N64   1.356       .  A
C63         C123   1.462       .  S
N64          C65   1.357       .  A
C65          N66   1.359       .  A
O67         Cu75   2.014       .  S
O67          C77   1.279       .  A
O68         Cu75   2.011       .  S
O68          C78   1.279       .  A
O69         Cu75   2.006       .  S
O69          C79   1.277       .  A
O70         Cu75   2.011       .  S
O70          C80   1.278       .  A
O71         Cu76   2.016       .  S
O71          C80   1.279       .  A
O72         Cu76   2.018       .  S
O72          C79   1.279       .  A
O73         Cu76   2.006       .  S
O73          C78   1.278       .  A
O74         Cu76   2.008       .  S
O74          C77   1.277       .  A
Cu75        Cu76   2.373       .  S
C77         C426   1.487   1_455  S
C78         C454   1.492   1_554  S
C79         C482   1.484   1_454  S
C80         C398   1.489       .  S
C81          N82   1.358       .  A
C81          N86   1.361       .  A
C81         C363   1.480       .  S
N82          C83   1.356       .  A
C83          N84   1.357       .  A
N84          C85   1.358       .  A
C85          N86   1.359       .  A
C87          N88   1.362       .  A
C87          N92   1.362       .  A
C87         C335   1.496       .  S
N88          C89   1.358       .  A
C89          N90   1.355       .  A
N90          C91   1.355       .  A
C91          N92   1.357       .  A
C93          N94   1.363       .  A
C93          N98   1.361       .  A
C93         C314   1.497       .  S
N94          C95   1.359       .  A
C95          N96   1.356       .  A
N96          C97   1.355       .  A
C97          N98   1.356       .  A
C99         N100   1.362       .  A
C99         N104   1.361       .  A
C99         C286   1.489       .  S
N100        C101   1.359       .  A
C101        N102   1.357       .  A
N102        C103   1.357       .  A
C103        N104   1.357       .  A
C103        C119   1.463       .  S
O105       Cu113   2.015       .  S
O105        C115   1.278       .  A
O106       Cu113   2.012       .  S
O106        C116   1.278       .  A
O107       Cu113   2.020       .  S
O107        C117   1.279       .  A
O108       Cu113   2.015       .  S
O108        C118   1.278       .  A
O109       Cu114   2.019       .  S
O109        C118   1.278       .  A
O110       Cu114   2.013       .  S
O110        C117   1.278       .  A
O111       Cu114   2.013       .  S
O111        C116   1.279       .  A
O112       Cu114   2.013       .  S
O112        C115   1.278       .  A
Cu113      Cu114   2.367       .  S
C115        C370   1.510   1_544  S
C116        C279   1.490       .  S
C117        C342   1.490   1_554  S
C118        C307   1.488   1_545  S
C119        N120   1.357       .  A
C119        N124   1.358       .  A
N120        C121   1.358       .  A
C121        N122   1.358       .  A
C121        C147   1.461       .  S
N122        C123   1.358       .  A
C123        N124   1.359       .  A
C125        N126   1.362       .  A
C125        N130   1.361       .  A
C125        C251   1.492       .  S
N126        C127   1.358       .  A
C127        N128   1.355       .  A
N128        C129   1.354       .  A
C129        N130   1.356       .  A
C131        N132   1.363       .  A
C131        N136   1.361       .  A
C131        C223   1.497       .  S
N132        C133   1.359       .  A
C133        N134   1.356       .  A
N134        C135   1.356       .  A
C135        N136   1.356       .  A
C137        N138   1.361       .  A
C137        N142   1.362       .  A
C137        C202   1.489       .  S
N138        C139   1.358       .  A
C139        N140   1.356       .  A
N140        C141   1.356       .  A
C141        N142   1.358       .  A
C143        N144   1.361       .  A
C143        N148   1.363       .  A
C143        C167   1.496       .  S
N144        C145   1.357       .  A
C145        N146   1.355       .  A
N146        C147   1.355       .  A
C147        N148   1.359       .  A
O149       Cu157   2.005       .  S
O149        C159   1.277       .  A
O150       Cu157   2.004       .  S
O150        C160   1.277       .  A
O151       Cu157   2.016       .  S
O151        C161   1.278       .  A
O152       Cu157   2.014       .  S
O152        C162   1.279       .  A
O153       Cu158   2.010       .  S
O153        C162   1.278       .  A
O154       Cu158   2.006       .  S
O154        C161   1.277       .  A
O155       Cu158   2.007       .  S
O155        C160   1.277       .  A
O156       Cu158   2.000       .  S
O156        C159   1.277       .  A
Cu157      Cu158   2.375       .  S
C159        C258   1.484   1_445  S
C160        C174   1.481       .  S
C161        C230   1.482   1_545  S
C162        C195   1.488   1_455  S
C163        C164   1.407       .  A
C163        C168   1.410       .  A
C163        C181   1.451       .  S
C164        C169   1.495       .  S
C164        C165   1.409       .  A
C165        C166   1.412       .  A
C165        C170   1.451       .  S
C166        C167   1.420       .  A
C166        C182   1.451       .  S
C167        C168   1.420       .  A
C168        C171   1.451       .  S
C169        C172   1.410       .  A
C169        C176   1.411       .  A
C170        N187   1.157       .  T
C171        N189   1.158       .  T
C172        C173   1.409       .  A
C172        C177   1.450       .  S
C173        C174   1.413       .  A
C173        C179   1.452       .  S
C174        C175   1.414       .  A
C175        C176   1.411       .  A
C175        C178   1.451       .  S
C176        C180   1.450       .  S
C177        N184   1.157       .  T
C178        N185   1.158       .  T
C179        N183   1.157       .  T
C180        N186   1.157       .  T
C181        N190   1.157       .  T
C182        N188   1.157       .  T
C191        C192   1.411       .  A
C191        C196   1.412       .  A
C191        C209   1.450       .  S
C192        C197   1.498       .  S
C192        C193   1.411       .  A
C193        C194   1.411       .  A
C193        C198   1.450       .  S
C194        C195   1.415       .  A
C194        C210   1.451   1_655  S
C195        C196   1.416       .  A
C196        C199   1.451       .  S
C197        C200   1.411       .  A
C197        C204   1.411       .  A
C198        N215   1.157       .  T
C199        N217   1.157       .  T
C200        C201   1.412       .  A
C200        C205   1.450       .  S
C201        C202   1.415       .  A
C201        C207   1.451       .  S
C202        C203   1.415       .  A
C203        C204   1.411       .  A
C203        C206   1.451       .  S
C204        C208   1.451       .  S
C205        N212   1.157       .  T
C206        N213   1.157       .  T
C207        N211   1.157       .  T
C208        N214   1.157       .  T
C209        N218   1.157       .  T
C210        N216   1.157       .  T
C219        C220   1.411       .  A
C219        C224   1.413       .  A
C219        C237   1.451       .  S
C220        C225   1.499       .  S
C220        C221   1.409       .  A
C221        C222   1.411       .  A
C221        C226   1.451       .  S
C222        C223   1.420       .  A
C222        C238   1.451       .  S
C223        C224   1.419       .  A
C224        C227   1.451       .  S
C225        C228   1.412       .  A
C225        C232   1.412       .  A
C226        N243   1.157       .  T
C227        N245   1.157       .  T
C228        C229   1.411       .  A
C228        C233   1.450       .  S
C229        C230   1.412       .  A
C229        C235   1.451   1_565  S
C230        C231   1.413       .  A
C231        C232   1.411       .  A
C231        C234   1.452       .  S
C232        C236   1.450       .  S
C233        N240   1.157       .  T
C234        N241   1.157       .  T
C235        N239   1.157       .  T
C236        N242   1.157       .  T
C237        N246   1.158       .  T
C238        N244   1.158       .  T
C247        C248   1.408       .  A
C247        C252   1.410       .  A
C247        C265   1.451       .  S
C248        C253   1.493       .  S
C248        C249   1.409       .  A
C249        C250   1.410       .  A
C249        C254   1.451       .  S
C250        C251   1.418       .  A
C250        C266   1.451       .  S
C251        C252   1.419       .  A
C252        C255   1.451       .  S
C253        C256   1.410       .  A
C253        C260   1.410       .  A
C254        N271   1.157       .  T
C255        N273   1.157       .  T
C256        C257   1.408       .  A
C256        C261   1.451       .  S
C257        C258   1.415       .  A
C257        C263   1.452   1_565  S
C258        C259   1.416       .  A
C259        C260   1.410       .  A
C259        C262   1.451   1_655  S
C260        C264   1.451       .  S
C261        N268   1.157       .  T
C262        N269   1.158       .  T
C263        N267   1.157       .  T
C264        N270   1.157       .  T
C265        N274   1.157       .  T
C266        N272   1.157       .  T
C275        C276   1.411       .  A
C275        C280   1.412       .  A
C275        C293   1.450       .  S
C276        C281   1.500       .  S
C276        C277   1.411       .  A
C277        C278   1.412       .  A
C277        C282   1.451       .  S
C278        C279   1.415       .  A
C278        C294   1.451       .  S
C279        C280   1.416       .  A
C280        C283   1.451       .  S
C281        C284   1.411       .  A
C281        C288   1.412       .  A
C282        N299   1.157       .  T
C283        N301   1.157       .  T
C284        C285   1.412       .  A
C284        C289   1.450       .  S
C285        C286   1.415       .  A
C285        C291   1.451       .  S
C286        C287   1.414       .  A
C287        C288   1.412       .  A
C287        C290   1.451       .  S
C288        C292   1.450       .  S
C289        N296   1.157       .  T
C290        N297   1.157       .  T
C291        N295   1.157       .  T
C292        N298   1.157       .  T
C293        N302   1.157       .  T
C294        N300   1.158       .  T
C303        C304   1.411       .  A
C303        C308   1.412       .  A
C303        C321   1.450       .  S
C304        C309   1.499       .  S
C304        C305   1.411       .  A
C305        C306   1.412       .  A
C305        C310   1.451       .  S
C306        C307   1.414       .  A
C306        C322   1.449       .  S
C307        C308   1.415       .  A
C308        C311   1.451   1_565  S
C309        C312   1.410       .  A
C309        C316   1.409       .  A
C310        N327   1.157       .  T
C311        N329   1.157       .  T
C312        C313   1.412       .  A
C312        C317   1.451       .  S
C313        C314   1.418       .  A
C313        C319   1.451       .  S
C314        C315   1.420       .  A
C315        C316   1.412       .  A
C315        C318   1.452       .  S
C316        C320   1.451       .  S
C317        N324   1.157       .  T
C318        N325   1.157       .  T
C319        N323   1.158       .  T
C320        N326   1.157       .  T
C321        N330   1.157       .  T
C322        N328   1.157       .  T
C331        C332   1.410       .  A
C331        C336   1.412       .  A
C331        C349   1.451       .  S
C332        C337   1.499       .  S
C332        C333   1.409       .  A
C333        C334   1.412       .  A
C333        C338   1.450       .  S
C334        C335   1.419       .  A
C334        C350   1.452       .  S
C335        C336   1.419       .  A
C336        C339   1.451       .  S
C337        C340   1.410       .  A
C337        C344   1.411       .  A
C338        N355   1.157       .  T
C339        N357   1.158       .  T
C340        C341   1.412   1_556  A
C340        C345   1.450       .  S
C341        C342   1.416   1_554  A
C341        C347   1.451       .  S
C342        C343   1.415       .  A
C343        C344   1.413       .  A
C343        C346   1.449       .  S
C344        C348   1.451       .  S
C345        N352   1.157       .  T
C346        N353   1.157       .  T
C347        N351   1.157       .  T
C348        N354   1.157       .  T
C349        N358   1.157       .  T
C350        N356   1.157       .  T
C359        C360   1.411       .  A
C359        C364   1.411       .  A
C359        C377   1.450       .  S
C360        C365   1.497       .  S
C360        C361   1.411       .  A
C361        C362   1.410       .  A
C361        C366   1.450       .  S
C362        C363   1.411       .  A
C362        C378   1.450       .  S
C363        C364   1.412       .  A
C364        C367   1.451       .  S
C365        C368   1.406       .  A
C365        C372   1.407       .  A
C366        N383   1.157       .  T
C367        N385   1.157       .  T
C368        C369   1.412       .  A
C368        C373   1.452       .  S
C369        C370   1.426       .  A
C369        C375   1.451   1_565  S
C370        C371   1.427       .  A
C371        C372   1.413       .  A
C371        C374   1.451   1_556  S
C372        C376   1.452       .  S
C373        N380   1.157       .  T
C374        N381   1.157       .  T
C375        N379   1.158       .  T
C376        N382   1.158       .  T
C377        N386   1.157       .  T
C378        N384   1.157       .  T
C387        C388   1.411       .  A
C387        C392   1.413       .  A
C387        C405   1.450       .  S
C388        C393   1.500       .  S
C388        C389   1.411       .  A
C389        C390   1.412       .  A
C389        C394   1.451       .  S
C390        C391   1.416       .  A
C390        C406   1.451       .  S
C391        C392   1.416       .  A
C392        C395   1.451       .  S
C393        C396   1.411       .  A
C393        C400   1.411       .  A
C394        N411   1.157       .  T
C395        N413   1.157       .  T
C396        C397   1.413       .  A
C396        C401   1.450       .  S
C397        C398   1.415       .  A
C397        C403   1.451       .  S
C398        C399   1.415       .  A
C399        C400   1.412       .  A
C399        C402   1.451       .  S
C400        C404   1.451       .  S
C401        N408   1.157       .  T
C402        N409   1.158       .  T
C403        N407   1.157       .  T
C404        N410   1.157       .  T
C405        N414   1.157       .  T
C406        N412   1.157       .  T
C415        C416   1.409       .  A
C415        C420   1.412       .  A
C415        C433   1.451       .  S
C416        C421   1.498       .  S
C416        C417   1.409       .  A
C417        C418   1.412       .  A
C417        C422   1.451       .  S
C418        C419   1.421       .  A
C418        C434   1.452       .  S
C419        C420   1.421       .  A
C420        C423   1.451       .  S
C421        C424   1.411       .  A
C421        C428   1.410       .  A
C422        N439   1.157       .  T
C423        N441   1.158       .  T
C424        C425   1.412       .  A
C424        C429   1.451       .  S
C425        C426   1.415       .  A
C425        C431   1.451   1_655  S
C426        C427   1.415       .  A
C427        C428   1.411       .  A
C427        C430   1.451       .  S
C428        C432   1.450       .  S
C429        N436   1.157       .  T
C430        N437   1.157       .  T
C431        N435   1.158       .  T
C432        N438   1.157       .  T
C433        N442   1.157       .  T
C434        N440   1.157       .  T
C443        C444   1.411       .  A
C443        C448   1.410       .  A
C443        C461   1.451       .  S
C444        C449   1.496       .  S
C444        C445   1.411       .  A
C445        C446   1.411       .  A
C445        C450   1.450       .  S
C446        C447   1.413       .  A
C446        C462   1.451       .  S
C447        C448   1.413       .  A
C448        C451   1.451       .  S
C449        C452   1.409       .  A
C449        C456   1.410       .  A
C450        N467   1.157       .  T
C451        N469   1.157       .  T
C452        C453   1.411       .  A
C452        C457   1.451       .  S
C453        C454   1.418       .  A
C453        C459   1.451       .  S
C454        C455   1.417       .  A
C455        C456   1.411       .  A
C455        C458   1.451   1_556  S
C456        C460   1.451       .  S
C457        N464   1.157       .  T
C458        N465   1.157       .  T
C459        N463   1.158       .  T
C460        N466   1.157       .  T
C461        N470   1.157       .  T
C462        N468   1.157       .  T
C471        C472   1.409       .  A
C471        C476   1.413       .  A
C471        C489   1.451       .  S
C472        C477   1.497       .  S
C472        C473   1.408       .  A
C473        C474   1.411       .  A
C473        C478   1.451       .  S
C474        C475   1.421       .  A
C474        C490   1.451       .  S
C475        C476   1.421       .  A
C476        C479   1.451       .  S
C477        C480   1.412       .  A
C477        C484   1.411       .  A
C478        N495   1.157       .  T
C479        N497   1.158       .  T
C480        C481   1.412       .  A
C480        C485   1.450       .  S
C481        C482   1.413       .  A
C481        C487   1.451   1_556  S
C482        C483   1.414       .  A
C483        C484   1.411       .  A
C483        C486   1.451   1_655  S
C484        C488   1.450       .  S
C485        N492   1.157       .  T
C486        N493   1.157       .  T
C487        N491   1.157       .  T
C488        N494   1.157       .  T
C489        N498   1.157       .  T
C490        N496   1.157       .  T
