geometry optimzed in LAMMPS
_audit_creation_date              2020-12-01 
_audit_creation_method            'lammps2cif' 
_symmetry_space_group_name_H-M    'P1' 
_symmetry_Int_Tables_number       1 
_symmetry_cell_setting            triclinic 
loop_ 
_symmetry_equiv_pos_as_xyz 
  x,y,z 
_cell_length_a                    48.05266212 
_cell_length_b                    50.05330570951541 
_cell_length_c                    27.11000007773269 
_cell_angle_alpha                 92.00440822400911 
_cell_angle_beta                  90.26639928158849 
_cell_angle_gamma                 123.64826076162899 
loop_ 
_atom_site_label 
_atom_site_type_symbol 
_atom_site_fract_x 
_atom_site_fract_y 
_atom_site_fract_z 
_atom_site_charge 
N1          N  0.11863217  0.16060107  0.75391641    -0.03300
C2          C  0.12940100  0.19163598  0.74662000    -0.00700
C3          C  0.12752349  0.20622860  0.78954865    -0.23600
C4          C  0.11527658  0.18372282  0.82471669    -0.23800
C5          C  0.11025861  0.15620228  0.80214861    -0.00800
H6          H  0.13520948  0.23097515  0.79492343     0.12900
H7          H  0.11139411  0.18726788  0.86304313     0.13000
N8          N  0.07834179  0.38464335  0.75290266    -0.03300
C9          C  0.09253332  0.36759880  0.75085764    -0.00700
C10         C  0.08990261  0.35400623  0.79562927    -0.23600
C11         C  0.07351031  0.36282400  0.82629288    -0.23800
C12         C  0.06688364  0.38158469  0.79923742    -0.00800
H13         H  0.10042797  0.34055182  0.80562260     0.12900
H14         H  0.06839846  0.35748266  0.86481259     0.13000
C15         C  0.17531427  0.34245246  0.63802179     0.03300
C16         C  0.20857133  0.36344494  0.62490191    -0.12900
C17         C  0.22974120  0.35251529  0.61805799     0.00800
C18         C  0.21522387  0.31909007  0.61534485    -0.11400
C19         C  0.18179084  0.29744791  0.62862178     0.03300
C20         C  0.16204138  0.30951623  0.63952781    -0.10800
H21         H  0.21868605  0.38885575  0.62553041     0.08900
H22         H  0.23067669  0.31000089  0.60770297     0.06400
H23         H  0.13731888  0.29381406  0.65401019     0.06200
N24         N  0.37719716  0.45340307  0.72924700    -0.03300
C25         C  0.34951580  0.45116044  0.71186441    -0.00700
C26         C  0.33823252  0.46346929  0.74692152    -0.23600
C27         C  0.35964557  0.47337319  0.78736505    -0.23800
C28         C  0.38307974  0.46649161  0.77579030    -0.00800
H29         H  0.31503124  0.46222765  0.74531796     0.12900
H30         H  0.35683559  0.48222864  0.82271699     0.13000
O31         O  0.08371363  0.07085234  0.98477329    -0.80800
O32         O  0.02042264  0.44845401  0.11032860    -0.65400
O33         O  0.07067032  0.01243477  0.01905483    -1.12000
C34         C  0.46777872  0.46528408  0.92726365     1.06100
O35         O  0.98729331  0.40873827  0.05553267    -0.78600
O36         O  0.99851245  0.42099923  0.95861802    -0.66200
Ni37       Ni  0.09758746  0.05675750  0.04004218     1.34900
C38         C  0.02212473  0.44021107  0.93129992     0.84900
O39         O  0.08440035  0.99402149  0.10524680    -0.79200
O40         O  0.11589895  0.04725626  0.09525438    -0.89500
C41         C  0.00222412  0.41886716  0.09765483     0.84400
O42         O  0.06527089  0.05744609  0.08051197    -0.67700
O43         O  0.45533720  0.44152234  0.95547717    -0.87000
C44         C  0.04430208  0.03679683  0.10961554     0.85300
C45         C  0.11072521  0.02201792  0.11469108     1.06800
H46         H  0.99505451  0.47862717  0.04295024     0.38600
O47         O  0.00668775  0.47057954  0.02572172    -1.09600
O48         O  0.03754416  0.47062683  0.93650200    -0.66300
Ni49       Ni  0.03183595  0.49999652  0.97568122     1.26300
O50         O  0.03718628  0.00823146  0.10914482    -0.66500
O51         O  0.49762777  0.48944981  0.93217518    -0.78800
C52         C  0.07691902  0.05981135  0.94012297     0.84700
O53         O  0.06239700  0.03022827  0.92914535    -0.66000
Ni54       Ni  0.97320904  0.42660786  0.00637033     1.27400
Ni55       Ni  0.04536449  0.48115052  0.06464633     1.26100
H56         H  0.08527694  0.00711277  0.00384099     0.39200
O57         O  0.00165184  0.40285952  0.47589035    -0.80800
O58         O  0.06846610  0.03010146  0.61711207    -0.65400
O59         O  0.01967883  0.46503113  0.51349470    -1.12000
C60         C  0.12222225  0.01225529  0.43484680     1.06100
O61         O  0.10525062  0.06935024  0.56993525    -0.78600
O62         O  0.08002452  0.05126374  0.47556152    -0.69800
Ni63       Ni  0.98793108  0.42079642  0.52786192     1.34900
C64         C  0.06162846  0.03127577  0.44084911     0.84900
O65         O  0.50340420  0.48677778  0.59857429    -0.79200
O66         O  0.46912993  0.43390260  0.58006422    -0.89500
C67         C  0.08983715  0.05966026  0.61026098     0.84400
O68         O  0.01617830  0.41812718  0.57409858    -0.67700
O69         O  0.12724589  0.03834016  0.45365506    -0.87000
C70         C  0.03817978  0.43823446  0.60570326     0.85300
C71         C  0.47591571  0.45974683  0.60254520     1.06800
H72         H  0.09627146  0.00148689  0.55190251     0.38600
O73         O  0.08352892  0.00724693  0.53275637    -1.09600
O74         O  0.05566037  0.00318013  0.43722969    -0.66300
Ni75       Ni  0.05860981  0.47475458  0.47984639     1.26300
O76         O  0.04889907  0.46802905  0.60764210    -0.66500
O77         O  0.09938435  0.98507839  0.44948593    -0.78800
C78         C  0.01554688  0.41381204  0.43493809     0.84700
O79         O  0.03403415  0.44351722  0.42906139    -0.66000
Ni80       Ni  0.11341813  0.05065778  0.51276581     1.27400
Ni81       Ni  0.04338771  0.49610170  0.56658815     1.26100
H82         H  0.00768881  0.47184010  0.49458121     0.39200
N83         N  0.21393836  0.03049827  0.23754016    -0.03300
C84         C  0.24320134  0.03567273  0.22168739    -0.00700
C85         C  0.25628263  0.02554954  0.25633920    -0.23600
C86         C  0.23462568  0.01421944  0.29485769    -0.23800
C87         C  0.20899367  0.01780699  0.28250721    -0.00800
H88         H  0.28062797  0.02906880  0.25593841     0.12900
H89         H  0.23857152  0.00665666  0.32963152     0.13000
N90         N  0.99224998  0.07554420  0.26781894    -0.03300
C91         C  0.47251555  0.08727495  0.26575964    -0.00700
C92         C  0.46218311  0.08847034  0.31284149    -0.23600
C93         C  0.97862779  0.07855511  0.34639911    -0.23800
C94         C  0.99621437  0.07084912  0.31571384    -0.00800
H95         H  0.44719516  0.09758014  0.32383061     0.12900
H96         H  0.97795210  0.07794361  0.38626540     0.13000
C97         C  0.41710189  0.13862366  0.14605913     0.03300
C98         C  0.43191206  0.17038793  0.13243480    -0.12900
C99         C  0.41260774  0.18295381  0.12194721     0.00800
C100        C  0.37734120  0.16157209  0.12002068    -0.11400
C101        C  0.36196336  0.12945729  0.13371787     0.03300
C102        C  0.38220604  0.11836685  0.14606582    -0.10800
H103        H  0.45890921  0.18602072  0.13429034     0.08900
H104        H  0.36184308  0.16999649  0.10964692     0.06400
H105        H  0.37069451  0.09438756  0.15947471     0.06200
N106        N  0.99787776  0.32740294  0.22536338    -0.03300
C107        C  0.99641153  0.30092842  0.20797516    -0.00700
C108        C  0.00630678  0.28903643  0.24450554    -0.23600
C109        C  0.01398633  0.30873699  0.28589720    -0.23800
C110        C  0.00878785  0.33213445  0.27317166    -0.00800
H111        H  0.00487543  0.26666351  0.24265795     0.12900
H112        H  0.02067768  0.30528157  0.32218100     0.13000
C113        C  0.44059717  0.26605633  0.17103275    -0.26200
C114        C  0.47501544  0.28132767  0.16531127    -0.14200
C115        C  0.98641370  0.26657829  0.13144032     0.36400
C116        C  0.46370409  0.23778378  0.10822251    -0.25600
C117        C  0.43022254  0.21897993  0.12326944    -0.14900
C118        C  0.41811467  0.23478239  0.15124688     0.37500
N119        N  0.38378661  0.21850294  0.16406073    -0.89100
H120        H  0.43149779  0.27635890  0.19689092     0.18600
H121        H  0.97291989  0.22528732  0.08530281     0.18600
N122        N  0.02133257  0.28186462  0.12170198    -0.88100
H123        H  0.37445627  0.23163879  0.15133532     0.35900
H124        H  0.38257361  0.21843669  0.20256175     0.41000
H125        H  0.03561164  0.30431476  0.14030839     0.40700
H126        H  0.02430305  0.28627481  0.08405376     0.35600
C127        C  0.47620515  0.13406991  0.23326443    -0.26200
C128        C  0.46646274  0.10220470  0.22466039    -0.14200
C129        C  0.44397398  0.08375966  0.18529250     0.36400
C130        C  0.43022025  0.09699189  0.15685982    -0.25600
C131        C  0.43758677  0.12797751  0.16862261    -0.14900
C132        C  0.46128168  0.14672556  0.20702488     0.37500
N133        N  0.46787986  0.17737460  0.22299279    -0.89100
H134        H  0.49300275  0.14818978  0.26424836     0.18600
H135        H  0.41201281  0.08222792  0.12766519     0.18600
N136        N  0.43309702  0.05094009  0.17656035    -0.88100
H137        H  0.49357966  0.19447249  0.22100403     0.35900
H138        H  0.46132670  0.17624895  0.25995842     0.41000
H139        H  0.40713516  0.03657418  0.17993068     0.40700
H140        H  0.43852505  0.04815916  0.14018622     0.35600
C141        C  0.30823889  0.07568626  0.12514373    -0.26200
C142        C  0.32541943  0.10790311  0.14313828    -0.14200
C143        C  0.31003111  0.11619358  0.17957985     0.36400
C144        C  0.28008468  0.09215834  0.19994444    -0.25600
C145        C  0.26519898  0.05971622  0.18588114    -0.14900
C146        C  0.27859573  0.05145667  0.14677206     0.37500
N147        N  0.26345375  0.01825758  0.13190406    -0.89100
H148        H  0.31970500  0.06900995  0.09731638     0.18600
H149        H  0.27037923  0.09860339  0.23085606     0.18600
N150        N  0.32549786  0.14823118  0.20006778    -0.88100
H151        H  0.27661922  0.01607192  0.10319160     0.35900
H152        H  0.23948331  0.00953855  0.11767214     0.41000
H153        H  0.32688084  0.16274305  0.17220744     0.40700
H154        H  0.34950849  0.15643886  0.21347795     0.35600
C155        C  0.03795884  0.40477021  0.35840248    -0.26200
C156        C  0.01219330  0.39226073  0.39292581    -0.14200
C157        C  0.98423003  0.36026552  0.38526455     0.36400
C158        C  0.98304961  0.34172980  0.34440235    -0.25600
C159        C  0.00893092  0.35435501  0.31045697    -0.14900
C160        C  0.03668570  0.38614853  0.31775744     0.37500
N161        N  0.06443459  0.39973045  0.28552834    -0.89100
H162        H  0.05981258  0.42910749  0.36353882     0.18600
H163        H  0.46419727  0.31757509  0.34165986     0.18600
N164        N  0.45909796  0.34601328  0.42080307    -0.88100
H165        H  0.05573567  0.39917248  0.24988334     0.35900
H166        H  0.07412027  0.38547969  0.28519083     0.41000
H167        H  0.44804739  0.35901644  0.42414452     0.40700
H168        H  0.46923720  0.34615917  0.45506252     0.35600
C169        C  0.14619341  0.98723456  0.38483489    -0.26200
C170        C  0.14310212  0.01332649  0.39372798    -0.14200
C171        C  0.15926984  0.03943771  0.36228576     0.36400
C172        C  0.17947780  0.03976616  0.32477508    -0.25600
C173        C  0.18383696  0.01442687  0.31772311    -0.14900
C174        C  0.16649466  0.98768509  0.34741952     0.37500
N175        N  0.16929669  0.96083539  0.33949007    -0.89100
H176        H  0.13332525  0.96656537  0.40763995     0.18600
H177        H  0.19272619  0.06050365  0.30218253     0.18600
N178        N  0.15503457  0.06553904  0.36784814    -0.88100
H179        H  0.14532944  0.94040137  0.33177858     0.35900
H180        H  0.17826680  0.95748785  0.37232040     0.41000
H181        H  0.14504356  0.06718500  0.33462262     0.40700
H182        H  0.17863518  0.08676076  0.37399664     0.35600
C183        C  0.50751041  0.03009907  0.33434347    -0.26200
C184        C  0.01840005  0.06196500  0.33578666    -0.14200
C185        C  0.04619885  0.08463138  0.36598298     0.36400
C186        C  0.06045840  0.07409913  0.39880469    -0.25600
C187        C  0.04733865  0.04126442  0.40249688    -0.14900
C188        C  0.02078257  0.01882709  0.36974290     0.37500
N189        N  0.50568344  0.48663232  0.37037677    -0.89100
H190        H  0.48698312  0.01260211  0.30995251     0.18600
H191        H  0.08134305  0.09165709  0.42262923     0.18600
N192        N  0.05849286  0.11814157  0.36529693    -0.88100
H193        H  0.50710535  0.47796677  0.33546582     0.35900
H194        H  0.48041891  0.47557547  0.37836814     0.41000
H195        H  0.06844469  0.12605178  0.33061909     0.40700
H196        H  0.07823850  0.13157285  0.39103883     0.35600
C197        C  0.02102401  0.36299847  0.15648936    -0.26200
C198        C  0.99787063  0.35029200  0.19440620    -0.14200
C199        C  0.97545409  0.36009904  0.20033188     0.36400
C200        C  0.97769242  0.38315677  0.16914889    -0.25600
C201        C  0.00080101  0.39550932  0.13112379    -0.14900
C202        C  0.02257345  0.38517888  0.12486259     0.37500
N203        N  0.04668325  0.39705905  0.08675954    -0.89100
H204        H  0.03824525  0.35563856  0.15169810     0.18600
H205        H  0.45911034  0.39073866  0.17223579     0.18600
N206        N  0.44873701  0.34670639  0.23469856    -0.88100
H207        H  0.06234397  0.42205253  0.09163367     0.35900
H208        H  0.03400067  0.39149115  0.05264404     0.41000
H209        H  0.44857577  0.32860347  0.25288414     0.40700
H210        H  0.42578207  0.33529591  0.21536745     0.35600
C211        C  0.04354015  0.07948177  0.16010761    -0.26200
C212        C  0.02839541  0.04663607  0.14706511    -0.14200
C213        C  0.99939148  0.02372451  0.17222980     0.36400
C214        C  0.98773654  0.03403569  0.21119562    -0.25600
C215        C  0.00372549  0.06661783  0.22518464    -0.14900
C216        C  0.03149971  0.08957991  0.19863280     0.37500
N217        N  0.55164304  0.12356275  0.21461187    -0.89100
H218        H  0.06556948  0.09750901  0.14129053     0.18600
H219        H  0.96599540  0.01656721  0.23109301     0.18600
N220        N  0.98181375  0.99007622  0.15837027    -0.88100
H221        H  0.53556291  0.13127007  0.21059869     0.35900
H222        H  0.55870816  0.12629614  0.25185709     0.41000
H223        H  0.97179467  0.98690325  0.12268448     0.40700
H224        H  0.96153355  0.97654404  0.18115650     0.35600
C225        C  0.13451441  0.99721557  0.16286004    -0.26200
C226        C  0.13716817  0.02523716  0.14851062    -0.14200
C227        C  0.16604679  0.05545413  0.16420525     0.36400
C228        C  0.19122433  0.05685303  0.19320755    -0.25600
C229        C  0.18828855  0.02876424  0.20707569    -0.14900
C230        C  0.15962066  0.99866582  0.19137875     0.37500
N231        N  0.15580941  0.96906382  0.20251455    -0.89100
H232        H  0.11303585  0.97376422  0.15105486     0.18600
H233        H  0.21298230  0.07998294  0.20536381     0.18600
N234        N  0.17009203  0.08485387  0.15103027    -0.88100
H235        H  0.15414486  0.96658186  0.24061138     0.35900
H236        H  0.17689217  0.96982120  0.19063355     0.41000
H237        H  0.19220009  0.09804712  0.13162276     0.40700
H238        H  0.17279188  0.09804581  0.18354822     0.35600
C239        C  0.43619561  0.43488067  0.67102776    -0.26200
C240        C  0.45040051  0.45806224  0.63496526    -0.14200
C241        C  0.43915016  0.47857374  0.62945339     0.36400
C242        C  0.41509696  0.47628907  0.66092263    -0.25600
C243        C  0.40145346  0.45374379  0.69781271    -0.14900
C244        C  0.41165429  0.43228657  0.70237193     0.37500
N245        N  0.39750607  0.40751303  0.73753251    -0.89100
H246        H  0.44424953  0.41864724  0.67486968     0.18600
H247        H  0.40683593  0.49232580  0.65667020     0.18600
N248        N  0.45065726  0.50103409  0.59102455    -0.88100
H249        H  0.38578803  0.38543908  0.71769281     0.35900
H250        H  0.37875513  0.40726862  0.75706745     0.41000
H251        H  0.44609476  0.48850434  0.55708567     0.40700
H252        H  0.47637143  0.51769988  0.59597048     0.35600
C253        C  0.43959774  0.48531109  0.80985083    -0.26200
C254        C  0.40484880  0.46536587  0.81319716    -0.14200
C255        C  0.39092688  0.44411389  0.85235305     0.36400
C256        C  0.41185340  0.44417389  0.88828454    -0.25600
C257        C  0.44671720  0.46505775  0.88656402    -0.14900
C258        C  0.46081565  0.48529530  0.84583195     0.37500
N259        N  0.49647556  0.50548746  0.84065999    -0.89100
H260        H  0.45017138  0.50101739  0.77917368     0.18600
H261        H  0.40057406  0.42802686  0.91830653     0.18600
N262        N  0.35555493  0.42174524  0.85625518    -0.88100
H263        H  0.50254268  0.51925201  0.80949743     0.35900
H264        H  0.50500683  0.49047224  0.83457810     0.41000
H265        H  0.34601924  0.40776029  0.82336444     0.40700
H266        H  0.34432004  0.43441617  0.86163843     0.35600
C267        C  0.28154593  0.40816063  0.61282601    -0.26200
C268        C  0.26666412  0.37621434  0.62699779    -0.14200
C269        C  0.28514647  0.36977877  0.65983054     0.36400
C270        C  0.31525745  0.39512847  0.68146421    -0.25600
C271        C  0.32680055  0.42703711  0.67337306    -0.14900
C272        C  0.31093102  0.43371885  0.63650977     0.37500
N273        N  0.32289209  0.46601113  0.62409919    -0.89100
H274        H  0.26875441  0.41371160  0.58624355     0.18600
H275        H  0.32743440  0.38979665  0.70949446     0.18600
N276        N  0.27220489  0.33806547  0.67563034    -0.88100
H277        H  0.32879864  0.46813502  0.58676442     0.35900
H278        H  0.34517193  0.48263655  0.64343776     0.41000
H279        H  0.28960529  0.33232815  0.66751826     0.40700
H280        H  0.26972768  0.33807409  0.71393808     0.35600
C281        C  0.09264566  0.42859777  0.69822599    -0.26200
C282        C  0.06986106  0.39712321  0.71258027    -0.14200
C283        C  0.03731201  0.37920947  0.69079109     0.36400
C284        C  0.02810541  0.39344512  0.65649365    -0.25600
C285        C  0.05041677  0.42526969  0.64270172    -0.14900
C286        C  0.08334672  0.44286305  0.66368978     0.37500
N287        N  0.10807353  0.47484480  0.65003671    -0.89100
H288        H  0.11760328  0.44236384  0.71482731     0.18600
H289        H  0.00282293  0.37940903  0.64098413     0.18600
N290        N  0.01268736  0.34670529  0.70322904    -0.88100
H291        H  0.10006154  0.48984095  0.65995802     0.35900
H292        H  0.11054263  0.47462352  0.61176772     0.41000
H293        H  0.02224045  0.33824604  0.72836977     0.40700
H294        H  0.50947138  0.33461896  0.67039750     0.35600
C295        C  0.02062258  0.38098511  0.83810909    -0.26200
C296        C  0.05336005  0.39897613  0.82173649    -0.14200
C297        C  0.07482183  0.43162072  0.83672338     0.36400
C298        C  0.06371133  0.44510838  0.87114410    -0.25600
C299        C  0.03174356  0.42634087  0.89101705    -0.14900
C300        C  0.00925949  0.39443034  0.87192264     0.37500
N301        N  0.97515911  0.37562135  0.88728973    -0.89100
H302        H  0.00434281  0.35591582  0.82598481     0.18600
H303        H  0.08068095  0.46986149  0.88428536     0.18600
N304        N  0.10830763  0.45041299  0.81895543    -0.88100
H305        H  0.96230498  0.35261349  0.87022373     0.35900
H306        H  0.96341908  0.38665842  0.87485348     0.41000
H307        H  0.12136800  0.44093379  0.83245448     0.40700
H308        H  0.12074941  0.47410609  0.83320654     0.35600
C309        C  0.14834008  0.38312697  0.72773954    -0.26200
C310        C  0.11486431  0.36870851  0.71286757    -0.14200
C311        C  0.10239374  0.34878821  0.66956816     0.36400
C312        C  0.12364095  0.34277777  0.64289317    -0.25600
C313        C  0.15649369  0.35523554  0.66010438    -0.14900
C314        C  0.16892146  0.37597061  0.70306735     0.37500
N315        N  0.20084975  0.38737556  0.72586699    -0.89100
H316        H  0.15763333  0.39764125  0.76195935     0.18600
H317        H  0.11389510  0.32655386  0.61051421     0.18600
N318        N  0.06784544  0.33316726  0.65469699    -0.88100
H319        H  0.21989195  0.40363066  0.70334670     0.35900
H320        H  0.20280123  0.36788722  0.73129087     0.41000
H321        H  0.05345896  0.31701665  0.68167548     0.40700
H322        H  0.06273242  0.31945442  0.62184449     0.35600
C323        C  0.08025244  0.10653820  0.71573345    -0.26200
C324        C  0.11186539  0.13563180  0.71761865    -0.14200
C325        C  0.13658297  0.13880299  0.68598300     0.36400
C326        C  0.12893223  0.11360420  0.65196147    -0.25600
C327        C  0.09716658  0.08449070  0.64969813    -0.14900
C328        C  0.07276926  0.08097522  0.68297527     0.37500
N329        N  0.03987224  0.05223785  0.68364814    -0.89100
H330        H  0.06105040  0.10368955  0.74005972     0.18600
H331        H  0.14822861  0.11674380  0.62753593     0.18600
N332        N  0.16988377  0.16690604  0.68967434    -0.88100
H333        H  0.54162442  0.03408453  0.69237862     0.35900
H334        H  0.52869679  0.04823174  0.64754751     0.41000
H335        H  0.17606119  0.17704873  0.65510254     0.40700
H336        H  0.18608889  0.15984397  0.69814859     0.35600
C337        C  0.06897854  0.11267736  0.85338378    -0.26200
C338        C  0.09969573  0.12739906  0.82988320    -0.14200
C339        C  0.12199405  0.11824650  0.84074752     0.36400
C340        C  0.11341359  0.09515181  0.87566784    -0.25600
C341        C  0.08328674  0.08147169  0.90054421    -0.14900
C342        C  0.06038190  0.08971991  0.88853547     0.37500
N343        N  0.52935498  0.07938026  0.91439795    -0.89100
H344        H  0.05201045  0.11995722  0.84557020     0.18600
H345        H  0.13092219  0.08873811  0.88482600     0.18600
N346        N  0.15425998  0.13336684  0.81936995    -0.88100
H347        H  0.53088748  0.09830906  0.93474931     0.35900
H348        H  0.52497193  0.06219173  0.93948560     0.41000
H349        H  0.16718043  0.15817382  0.82656779     0.40700
H350        H  0.15102810  0.12869919  0.78126854     0.35600
C351        C  0.12471033  0.21110698  0.66638308    -0.26200
C352        C  0.14518716  0.21047194  0.70272574    -0.14200
C353        C  0.17952489  0.23548262  0.70600686     0.36400
C354        C  0.19167704  0.26196032  0.67674587    -0.25600
C355        C  0.17042686  0.26472272  0.64473727    -0.14900
C356        C  0.13707073  0.23803800  0.63707594     0.37500
N357        N  0.11543508  0.23927848  0.60182905    -0.89100
H358        H  0.09834564  0.19206143  0.66415961     0.18600
H359        H  0.21730245  0.28187496  0.68310991     0.18600
N360        N  0.20221832  0.23605657  0.74155671    -0.88100
H361        H  0.09165194  0.21792994  0.60100944     0.35900
H362        H  0.12526062  0.24086945  0.56691646     0.41000
H363        H  0.19095662  0.21483628  0.76054304     0.40700
H364        H  0.20903688  0.25471796  0.76767177     0.35600
N365        N  0.11638804  0.65986847  0.75178398    -0.03300
C366        C  0.12743493  0.69093096  0.74416538    -0.00700
C367        C  0.12479769  0.70548333  0.78654816    -0.23600
C368        C  0.11178052  0.68291388  0.82166097    -0.23800
C369        C  0.10703443  0.65539773  0.79959067    -0.00800
H370        H  0.13269980  0.73030247  0.79174282     0.12900
H371        H  0.10749070  0.68649748  0.85975866     0.13000
N372        N  0.07994831  0.88525928  0.75146307    -0.03300
C373        C  0.09512819  0.86905754  0.74927304    -0.00700
C374        C  0.09290360  0.85552871  0.79396403    -0.23600
C375        C  0.07586521  0.86351227  0.82472059    -0.23800
C376        C  0.06837839  0.88172833  0.79787825    -0.00800
H377        H  0.10402408  0.84257657  0.80381169     0.12900
H378        H  0.07094830  0.85806035  0.86323873     0.13000
C379        C  0.17677030  0.84214876  0.63614618     0.03300
C380        C  0.21012712  0.86304865  0.62328733    -0.12900
C381        C  0.23126211  0.85203875  0.61704422     0.00800
C382        C  0.21675023  0.81863385  0.61449423    -0.11400
C383        C  0.18310598  0.79701486  0.62674828     0.03300
C384        C  0.16329237  0.80911565  0.63711530    -0.10800
H385        H  0.22041000  0.88849899  0.62381768     0.08900
H386        H  0.23234197  0.80956163  0.60796761     0.06400
H387        H  0.13836921  0.79331620  0.65090389     0.06200
N388        N  0.37825787  0.95390665  0.72900425    -0.03300
C389        C  0.35077359  0.95191203  0.71132707    -0.00700
C390        C  0.34001829  0.96499024  0.74594505    -0.23600
C391        C  0.36156001  0.97510985  0.78628821    -0.23800
C392        C  0.38452190  0.96755476  0.77516932    -0.00800
H393        H  0.31693071  0.96395790  0.74438238     0.12900
H394        H  0.35899151  0.98436902  0.82142487     0.13000
O395        O  0.08404646  0.57144554  0.98336793    -0.80800
O396        O  0.01883996  0.94840331  0.11072807    -0.65400
O397        O  0.06955063  0.51188434  0.01629904    -1.12000
C398        C  0.46745141  0.96514383  0.92827152     1.06100
O399        O  0.98931776  0.90959294  0.05295055    -0.78600
O400        O  0.99734688  0.92140789  0.95527579    -0.66200
Ni401      Ni  0.09746309  0.55629450  0.03765618     1.34900
C402        C  0.02335572  0.94005606  0.93137285     0.84900
O403        O  0.08529956  0.49336685  0.10085803    -0.79200
O404        O  0.11597604  0.54660701  0.09234554    -0.89500
C405        C  0.00204531  0.91902828  0.09647843     0.84400
O406        O  0.06530061  0.55687209  0.07841709    -0.67700
O407        O  0.45581940  0.94060249  0.95461877    -0.87000
C408        C  0.04497422  0.53646792  0.10835736     0.85300
C409        C  0.11136927  0.52137114  0.11079965     1.06800
H410        H  0.99621618  0.97988002  0.04073507     0.38600
O411        O  0.00782222  0.97129375  0.02504474    -1.09600
O412        O  0.04131620  0.97035911  0.93985770    -0.66300
Ni413      Ni  0.03424371  0.99999880  0.97525444     1.26300
O414        O  0.03831486  0.50806199  0.10854909    -0.66500
O415        O  0.49642339  0.99032603  0.93530287    -0.78800
C416        C  0.07465313  0.56003375  0.93925010     0.84700
O417        O  0.05836705  0.53030106  0.92864559    -0.66000
Ni418      Ni  0.97404235  0.92761575  0.00619546     1.27400
Ni419      Ni  0.04529331  0.98163690  0.06650293     1.26100
H420        H  0.08339994  0.50633707  0.99931618     0.39200
O421        O  0.00157491  0.90382036  0.47490661    -0.80800
O422        O  0.06807478  0.52919192  0.61682717    -0.65400
O423        O  0.02064039  0.96611191  0.51334941    -1.12000
C424        C  0.12103073  0.51135088  0.43401266     1.06100
O425        O  0.10384470  0.56846801  0.56880828    -0.78600
O426        O  0.07950992  0.55064473  0.47419702    -0.69800
Ni427      Ni  0.98885028  0.92192455  0.52812415     1.34900
C428        C  0.06051609  0.53037899  0.44018968     0.84900
O429        O  0.50468600  0.98686387  0.59954487    -0.79200
O430        O  0.47002830  0.93410337  0.58044061    -0.89500
C431        C  0.08884304  0.55880010  0.60942395     0.84400
O432        O  0.01782043  0.91931806  0.57302709    -0.67700
O433        O  0.12658899  0.53749949  0.45345929    -0.87000
C434        C  0.03907055  0.93926617  0.60557245     0.85300
C435        C  0.47698127  0.95997260  0.60301003     1.06800
H436        H  0.09544709  0.50059199  0.55060121     0.38600
O437        O  0.08260007  0.50635178  0.53188749    -1.09600
O438        O  0.05383970  0.50201885  0.43701156    -0.66300
Ni439      Ni  0.05990848  0.97574515  0.48054293     1.26300
O440        O  0.04899454  0.96887248  0.60829145    -0.66500
O441        O  0.09777575  0.48413390  0.44790320    -0.78800
C442        C  0.01627513  0.91495731  0.43448323     0.84700
O443        O  0.03576563  0.94467366  0.42943493    -0.66000
Ni444      Ni  0.11247935  0.54982507  0.51211666     1.27400
Ni445      Ni  0.04406699  0.99715156  0.56662204     1.26100
H446        H  0.00882825  0.97287355  0.49408226     0.39200
N447        N  0.21327387  0.52994582  0.23739070    -0.03300
C448        C  0.24257373  0.53494469  0.22215009    -0.00700
C449        C  0.25510942  0.52429741  0.25677309    -0.23600
C450        C  0.23307744  0.51281146  0.29476867    -0.23800
C451        C  0.20776670  0.51681171  0.28209606    -0.00800
H452        H  0.27930509  0.52748939  0.25669659     0.12900
H453        H  0.23656508  0.50482700  0.32944794     0.13000
N454        N  0.99497161  0.57768620  0.26601217    -0.03300
C455        C  0.47499588  0.59047682  0.26559552    -0.00700
C456        C  0.46691893  0.59347904  0.31348534    -0.23600
C457        C  0.98545026  0.58458567  0.34539785    -0.23800
C458        C  0.00003507  0.57387698  0.31387975    -0.00800
H459        H  0.45296225  0.60352883  0.32540863     0.12900
H460        H  0.98606349  0.58500774  0.38534504     0.13000
C461        C  0.41684750  0.63968110  0.14672423     0.03300
C462        C  0.43111991  0.67131927  0.13281736    -0.12900
C463        C  0.41130486  0.68333563  0.12226485     0.00800
C464        C  0.37612245  0.66155514  0.12054760    -0.11400
C465        C  0.36129968  0.62958091  0.13454448     0.03300
C466        C  0.38201101  0.61905356  0.14704916    -0.10800
H467        H  0.45808836  0.68728114  0.13428891     0.08900
H468        H  0.36029486  0.66958411  0.11004508     0.06400
H469        H  0.37089659  0.59518940  0.16071978     0.06200
N470        N  0.99729985  0.82802198  0.22474332    -0.03300
C471        C  0.99547270  0.80137288  0.20756253    -0.00700
C472        C  0.00589040  0.78982908  0.24391179    -0.23600
C473        C  0.01441170  0.81009227  0.28488039    -0.23800
C474        C  0.00913253  0.83342789  0.27205267    -0.00800
H475        H  0.00431090  0.76738419  0.24232808     0.12900
H476        H  0.02158003  0.80698430  0.32105186     0.13000
C477        C  0.43849061  0.76602316  0.17160138    -0.26200
C478        C  0.47291561  0.78139246  0.16571871    -0.14200
C479        C  0.98477797  0.76742658  0.13026550     0.36400
C480        C  0.46166704  0.73832410  0.10768461    -0.25600
C481        C  0.42833409  0.71925849  0.12318044    -0.14900
C482        C  0.41608893  0.73478920  0.15155797     0.37500
N483        N  0.38176855  0.71823608  0.16455509    -0.89100
H484        H  0.42939279  0.77609435  0.19791302     0.18600
H485        H  0.97138077  0.72637968  0.08351490     0.18600
N486        N  0.01950945  0.78356866  0.11866318    -0.88100
H487        H  0.37223689  0.73127019  0.15215713     0.35900
H488        H  0.38063860  0.71803628  0.20306126     0.41000
H489        H  0.03363161  0.80606167  0.13718460     0.40700
H490        H  0.02145255  0.78800610  0.08102185     0.35600
C491        C  0.47759991  0.63651102  0.23225028    -0.26200
C492        C  0.46773831  0.60455305  0.22456947    -0.14200
C493        C  0.44447644  0.58547867  0.18631830     0.36400
C494        C  0.43029387  0.59831547  0.15792273    -0.25600
C495        C  0.43779305  0.62944016  0.16893321    -0.14900
C496        C  0.46207323  0.64870054  0.20641640     0.37500
N497        N  0.46870068  0.67941176  0.22203391    -0.89100
H498        H  0.49503375  0.65113426  0.26237057     0.18600
H499        H  0.41162338  0.58313322  0.12947646     0.18600
N500        N  0.43325059  0.55248242  0.17880609    -0.88100
H501        H  0.49431645  0.69657598  0.21914445     0.35900
H502        H  0.46273381  0.67861325  0.25923950     0.41000
H503        H  0.40738719  0.53835260  0.18336142     0.40700
H504        H  0.43787480  0.54895164  0.14231161     0.35600
C505        C  0.30839247  0.57522824  0.12669530    -0.26200
C506        C  0.32483716  0.60754520  0.14390979    -0.14200
C507        C  0.30892080  0.61563996  0.17969050     0.36400
C508        C  0.27912986  0.59140017  0.20008054    -0.25600
C509        C  0.26491564  0.55897773  0.18666545    -0.14900
C510        C  0.27897484  0.55081741  0.14846462     0.37500
N511        N  0.26476073  0.51760725  0.13474844    -0.89100
H512        H  0.32031215  0.56869618  0.09945974     0.18600
H513        H  0.26901062  0.59776161  0.23050587     0.18600
N514        N  0.32369518  0.64772963  0.19953785    -0.88100
H515        H  0.27840035  0.51551537  0.10671249     0.35900
H516        H  0.24073364  0.50811567  0.12001094     0.41000
H517        H  0.32476431  0.66186997  0.17129205     0.40700
H518        H  0.34778342  0.65650391  0.21326715     0.35600
C519        C  0.03804372  0.90620099  0.35687017    -0.26200
C520        C  0.01258242  0.89352204  0.39193340    -0.14200
C521        C  0.98474323  0.86142555  0.38441862     0.36400
C522        C  0.98343236  0.84299283  0.34329090    -0.25600
C523        C  0.00917565  0.85569596  0.30914413    -0.14900
C524        C  0.03671607  0.88763644  0.31610114     0.37500
N525        N  0.06421251  0.90147317  0.28339605    -0.89100
H526        H  0.05978157  0.93062560  0.36168719     0.18600
H527        H  0.46456413  0.81697964  0.34432738     0.18600
N528        N  0.46075761  0.84549936  0.42439789    -0.88100
H529        H  0.05520019  0.90093072  0.24800725     0.35900
H530        H  0.07413529  0.88742544  0.28249787     0.41000
H531        H  0.44964676  0.85841688  0.42834840     0.40700
H532        H  0.47143144  0.84582089  0.45826677     0.35600
C533        C  0.14517046  0.48640943  0.38455144    -0.26200
C534        C  0.14185892  0.51237965  0.39299531    -0.14200
C535        C  0.15763340  0.53825331  0.36112683     0.36400
C536        C  0.17775134  0.53850883  0.32354228    -0.25600
C537        C  0.18240166  0.51332352  0.31694441    -0.14900
C538        C  0.16536645  0.48676962  0.34709584     0.37500
N539        N  0.16841507  0.46003704  0.33965562    -0.89100
H540        H  0.13257173  0.46592525  0.40776247     0.18600
H541        H  0.19075045  0.55909914  0.30061943     0.18600
N542        N  0.15306918  0.56416091  0.36636116    -0.88100
H543        H  0.14449515  0.43944379  0.33234480     0.35900
H544        H  0.17763202  0.45705441  0.37256049     0.41000
H545        H  0.14279469  0.56545122  0.33315576     0.40700
H546        H  0.17658563  0.58554157  0.37211125     0.35600
C547        C  0.50686324  0.53151906  0.33500925    -0.26200
C548        C  0.01987385  0.56212093  0.33299060    -0.14200
C549        C  0.05098556  0.58409283  0.35697530     0.36400
C550        C  0.06408674  0.57303878  0.39094287    -0.25600
C551        C  0.04658861  0.54044835  0.40170931    -0.14900
C552        C  0.01632663  0.51827471  0.37546401     0.37500
N553        N  0.51131772  0.98664000  0.36415236    -0.89100
H554        H  0.48472573  0.51421676  0.31302439     0.18600
H555        H  0.08774282  0.59010650  0.40991674     0.18600
N556        N  0.06815113  0.61782735  0.34885968    -0.88100
H557        H  0.51526143  0.98093406  0.32851123     0.35900
H558        H  0.48560480  0.97270879  0.37003978     0.41000
H559        H  0.07621032  0.62108979  0.31256980     0.40700
H560        H  0.08975976  0.63098254  0.37140219     0.35600
C561        C  0.02228749  0.86519008  0.15828848    -0.26200
C562        C  0.99742101  0.85078942  0.19359478    -0.14200
C563        C  0.97315643  0.85841688  0.19642222     0.36400
C564        C  0.97514298  0.88108291  0.16469302    -0.25600
C565        C  0.00024686  0.89546630  0.12964141    -0.14900
C566        C  0.02384892  0.88720110  0.12634842     0.37500
N567        N  0.04973691  0.90094650  0.09089540    -0.89100
H568        H  0.04080967  0.85930172  0.15588596     0.18600
H569        H  0.45831222  0.88987473  0.17160916     0.18600
N570        N  0.44789686  0.84630251  0.23505138    -0.88100
H571        H  0.06394420  0.92591060  0.09678345     0.35900
H572        H  0.03855602  0.89535209  0.05558667     0.41000
H573        H  0.44822949  0.82888883  0.25458041     0.40700
H574        H  0.42514718  0.83414204  0.21506773     0.35600
C575        C  0.04430881  0.57959970  0.15715902    -0.26200
C576        C  0.02940751  0.54661108  0.14586560    -0.14200
C577        C  0.00089306  0.52409288  0.17227272     0.36400
C578        C  0.98969338  0.53503087  0.21107864    -0.25600
C579        C  0.00539947  0.56786893  0.22311989    -0.14900
C580        C  0.03249526  0.59033901  0.19497670     0.37500
N581        N  0.55147030  0.62517562  0.20945084    -0.89100
H582        H  0.06588872  0.59733687  0.13723712     0.18600
H583        H  0.96854784  0.51789290  0.23229008     0.18600
N584        N  0.98332718  0.49027027  0.15974301    -0.88100
H585        H  0.53508938  0.63244027  0.20446229     0.35900
H586        H  0.55876159  0.62891783  0.24668836     0.41000
H587        H  0.97282466  0.48645986  0.12424348     0.40700
H588        H  0.96335711  0.47710663  0.18319345     0.35600
C589        C  0.13504248  0.49664647  0.15956280    -0.26200
C590        C  0.13786864  0.52464501  0.14462455    -0.14200
C591        C  0.16660344  0.55487392  0.16066858     0.36400
C592        C  0.19121954  0.55629615  0.19117817    -0.25600
C593        C  0.18796536  0.52821796  0.20600884    -0.14900
C594        C  0.15962255  0.49812025  0.18950720     0.37500
N595        N  0.15558850  0.46852948  0.20140132    -0.89100
H596        H  0.11372939  0.47318172  0.14739176     0.18600
H597        H  0.21278962  0.57944618  0.20367664     0.18600
N598        N  0.17109714  0.58426195  0.14627725    -0.88100
H599        H  0.15307801  0.46598491  0.23944264     0.35900
H600        H  0.17693998  0.46933974  0.19089119     0.41000
H601        H  0.19355795  0.59725088  0.12762698     0.40700
H602        H  0.17333425  0.59767038  0.17828046     0.35600
C603        C  0.43630479  0.93454548  0.67002917    -0.26200
C604        C  0.45144733  0.95842585  0.63512870    -0.14200
C605        C  0.44113094  0.97974659  0.63056951     0.36400
C606        C  0.41709324  0.97754074  0.66196933    -0.25600
C607        C  0.40253433  0.95426136  0.69770959    -0.14900
C608        C  0.41182493  0.93207628  0.70129949     0.37500
N609        N  0.39691037  0.90677536  0.73554956    -0.89100
H610        H  0.44365372  0.91772314  0.67312792     0.18600
H611        H  0.40948941  0.99414354  0.65849558     0.18600
N612        N  0.45342091  0.00285775  0.59302580    -0.88100
H613        H  0.38442185  0.88495065  0.71493836     0.35900
H614        H  0.37876194  0.90711131  0.75589456     0.41000
H615        H  0.44881122  0.99077853  0.55865436     0.40700
H616        H  0.47917235  0.01903262  0.59839854     0.35600
C617        C  0.44054909  0.98554383  0.81020093    -0.26200
C618        C  0.40575309  0.96588338  0.81292240    -0.14200
C619        C  0.39128621  0.94442780  0.85177432     0.36400
C620        C  0.41176623  0.94399501  0.88804800    -0.25600
C621        C  0.44666131  0.96477578  0.88706038    -0.14900
C622        C  0.46127840  0.98518822  0.84665586     0.37500
N623        N  0.49702609  0.00529409  0.84242830    -0.89100
H624        H  0.45154442  0.00138653  0.77975319     0.18600
H625        H  0.40016917  0.92776509  0.91790587     0.18600
N626        N  0.35580427  0.92250487  0.85513992    -0.88100
H627        H  0.50354067  0.01913409  0.81128707     0.35900
H628        H  0.50553555  0.99021798  0.83691090     0.41000
H629        H  0.34632053  0.90868797  0.82209369     0.40700
H630        H  0.34497913  0.93557195  0.86028236     0.35600
C631        C  0.28339121  0.90738149  0.61138805    -0.26200
C632        C  0.26805528  0.87566077  0.62690494    -0.14200
C633        C  0.28569334  0.86953646  0.66188611     0.36400
C634        C  0.31529461  0.89507858  0.68439734    -0.25600
C635        C  0.32738557  0.92686537  0.67435983    -0.14900
C636        C  0.31245552  0.93319234  0.63576302     0.37500
N637        N  0.32629763  0.96569720  0.62237840    -0.89100
H638        H  0.27101849  0.91241068  0.58326458     0.18600
H639        H  0.32681896  0.89006815  0.71390414     0.18600
N640        N  0.27239198  0.83792937  0.67851141    -0.88100
H641        H  0.32336830  0.97780013  0.65196197     0.35900
H642        H  0.31280652  0.96613484  0.59240603     0.41000
H643        H  0.29003134  0.83224321  0.67225385     0.40700
H644        H  0.26899155  0.83812449  0.71656475     0.35600
C645        C  0.09362759  0.92979327  0.69837247    -0.26200
C646        C  0.07129056  0.89794040  0.71156069    -0.14200
C647        C  0.03881099  0.87992007  0.68946577     0.36400
C648        C  0.02942288  0.89422551  0.65551107    -0.25600
C649        C  0.05136820  0.92632244  0.64263317    -0.14900
C650        C  0.08405376  0.94420616  0.66450764     0.37500
N651        N  0.10827131  0.97670392  0.65251932    -0.89100
H652        H  0.11843952  0.94375461  0.71544153     0.18600
H653        H  0.00426380  0.88002361  0.63956372     0.18600
N654        N  0.01440467  0.84722983  0.70129129    -0.88100
H655        H  0.09937443  0.99090017  0.66294893     0.35900
H656        H  0.11135808  0.97736882  0.61435570     0.41000
H657        H  0.02403906  0.83877438  0.72629633     0.40700
H658        H  0.51029783  0.83461768  0.67281410     0.35600
C659        C  0.02184362  0.88065550  0.83752662    -0.26200
C660        C  0.05457776  0.89873748  0.82105595    -0.14200
C661        C  0.07602244  0.93107714  0.83705879     0.36400
C662        C  0.06513367  0.94441378  0.87197580    -0.25600
C663        C  0.03296799  0.92581468  0.89137799    -0.14900
C664        C  0.01044451  0.89396411  0.87173786     0.37500
N665        N  0.97629124  0.87504719  0.88683349    -0.89100
H666        H  0.00554631  0.85567074  0.82498446     0.18600
H667        H  0.08248655  0.96905601  0.88532578     0.18600
N668        N  0.10959394  0.94983019  0.82022094    -0.88100
H669        H  0.96355352  0.85206356  0.86969479     0.35900
H670        H  0.96452982  0.88601820  0.87418853     0.41000
H671        H  0.12589940  0.95776151  0.85098004     0.40700
H672        H  0.11301605  0.97000581  0.80379691     0.35600
C673        C  0.15074838  0.88410038  0.72543497    -0.26200
C674        C  0.11726714  0.87006879  0.71078770    -0.14200
C675        C  0.10445863  0.84973947  0.66788644     0.36400
C676        C  0.12529909  0.84302065  0.64143912    -0.25600
C677        C  0.15812644  0.85516181  0.65843528    -0.14900
C678        C  0.17088812  0.87619687  0.70109138     0.37500
N679        N  0.20265288  0.88713252  0.72405855    -0.89100
H680        H  0.16032886  0.89881605  0.75944234     0.18600
H681        H  0.11524220  0.82655509  0.60935268     0.18600
N682        N  0.06991133  0.83436634  0.65324815    -0.88100
H683        H  0.22190154  0.90314789  0.70159480     0.35900
H684        H  0.20413076  0.86739192  0.72973783     0.41000
H685        H  0.05551945  0.81851988  0.68054476     0.40700
H686        H  0.06451052  0.82034074  0.62066775     0.35600
C687        C  0.07835722  0.60588150  0.71331383    -0.26200
C688        C  0.11007952  0.63485151  0.71593042    -0.14200
C689        C  0.13511303  0.63796525  0.68506482     0.36400
C690        C  0.12771424  0.61273570  0.65126006    -0.25600
C691        C  0.09589049  0.58369604  0.64849171    -0.14900
C692        C  0.07109645  0.58033984  0.68071158     0.37500
N693        N  0.03797480  0.55184549  0.68020801    -0.89100
H694        H  0.05885372  0.60315883  0.73681663     0.18600
H695        H  0.14721471  0.61578858  0.62737628     0.18600
N696        N  0.16839162  0.66609368  0.68912127    -0.88100
H697        H  0.54008994  0.53468739  0.69076542     0.35900
H698        H  0.52780886  0.54950504  0.64611662     0.41000
H699        H  0.17481440  0.67619378  0.65452651     0.40700
H700        H  0.18455122  0.65906549  0.69810351     0.35600
C701        C  0.06535661  0.61044351  0.84857254    -0.26200
C702        C  0.09705331  0.62696718  0.82789099    -0.14200
C703        C  0.12060927  0.62002077  0.84209428     0.36400
C704        C  0.11236721  0.59746688  0.87779939    -0.25600
C705        C  0.08107982  0.58177740  0.89969835    -0.14900
C706        C  0.05690642  0.58771870  0.88415014     0.37500
N707        N  0.53298012  0.58111681  0.91809751    -0.89100
H708        H  0.04741568  0.61608436  0.83817698     0.18600
H709        H  0.13080800  0.59275271  0.88947763     0.18600
N710        N  0.15358195  0.63668277  0.82286083    -0.88100
H711        H  0.53979669  0.58693167  0.95553683     0.35900
H712        H  0.51758465  0.55610837  0.91330723     0.41000
H713        H  0.16503783  0.66134665  0.82988759     0.40700
H714        H  0.15155735  0.63208991  0.78472193     0.35600
C715        C  0.12531291  0.71040456  0.66240672    -0.26200
C716        C  0.14459769  0.70991453  0.70092689    -0.14200
C717        C  0.17881233  0.73503867  0.70631645     0.36400
C718        C  0.19180468  0.76164385  0.67713145    -0.25600
C719        C  0.17152233  0.76428028  0.64292168    -0.14900
C720        C  0.13856885  0.73741378  0.63302168     0.37500
N721        N  0.11818034  0.73854771  0.59533176    -0.89100
H722        H  0.09907764  0.69118077  0.65837687     0.18600
H723        H  0.21715791  0.78171342  0.68508468     0.18600
N724        N  0.20040376  0.73556197  0.74386862    -0.88100
H725        H  0.09454429  0.71702395  0.59295602     0.35900
H726        H  0.12941315  0.74040998  0.56155884     0.41000
H727        H  0.18868796  0.71408730  0.76224900     0.40700
H728        H  0.20604034  0.75385478  0.77005413     0.35600
N729        N  0.61872130  0.16145900  0.75305880    -0.03300
C730        C  0.63078572  0.19280781  0.74569551    -0.00700
C731        C  0.62992909  0.20795373  0.78871317    -0.23600
C732        C  0.61698267  0.18546987  0.82397734    -0.23800
C733        C  0.61052470  0.15736946  0.80141968    -0.00800
H734        H  0.63858863  0.23297542  0.79402324     0.12900
H735        H  0.61366288  0.18940728  0.86240281     0.13000
N736        N  0.58175433  0.38747453  0.75112463    -0.03300
C737        C  0.59655785  0.37096693  0.74737402    -0.00700
C738        C  0.59496733  0.35722384  0.79155675    -0.23600
C739        C  0.57855841  0.36525562  0.82360480    -0.23800
C740        C  0.57087204  0.38378481  0.79802473    -0.00800
H741        H  0.60588282  0.34388551  0.80006586     0.12900
H742        H  0.57388903  0.35933962  0.86199608     0.13000
C743        C  0.67584677  0.34225353  0.63258108     0.03300
C744        C  0.70876033  0.36278341  0.61767126    -0.12900
C745        C  0.72996252  0.35180509  0.61152777     0.00800
C746        C  0.71524090  0.31831262  0.60959881    -0.11400
C747        C  0.68200843  0.29696140  0.62410856     0.03300
C748        C  0.66259865  0.30937170  0.63551365    -0.10800
H749        H  0.71863132  0.38805586  0.61651232     0.08900
H750        H  0.73033970  0.30892819  0.60133316     0.06400
H751        H  0.63819356  0.29402548  0.65114326     0.06200
N752        N  0.87590952  0.45082020  0.72789021    -0.03300
C753        C  0.84849248  0.44904907  0.71032973    -0.00700
C754        C  0.83700572  0.46094551  0.74576391    -0.23600
C755        C  0.85795997  0.47003306  0.78661575    -0.23800
C756        C  0.88132669  0.46307479  0.77494336    -0.00800
H757        H  0.81400438  0.46006357  0.74395930     0.12900
H758        H  0.85497153  0.47855851  0.82214570     0.13000
O759        O  0.58485591  0.07230238  0.98523517    -0.80800
O760        O  0.51854476  0.44914881  0.11065620    -0.65400
O761        O  0.57055644  0.01275736  0.01805424    -1.12000
C762        C  0.96572350  0.46309994  0.92819095     1.06100
O763        O  0.48793741  0.41003039  0.05370776    -0.78600
O764        O  0.49749890  0.42151979  0.95609773    -0.66200
Ni765      Ni  0.59847074  0.05715479  0.03937031     1.34900
C766        C  0.52307583  0.44018334  0.93139411     0.84900
O767        O  0.58503152  0.99396664  0.10357846    -0.79200
O768        O  0.61682986  0.04712272  0.09376761    -0.89500
C769        C  0.50125968  0.41969707  0.09691885     0.84400
O770        O  0.56680575  0.05825944  0.08073599    -0.67700
O771        O  0.95465967  0.43871331  0.95468927    -0.87000
C772        C  0.54575195  0.03760806  0.10973293     0.85300
C773        C  0.61146897  0.02181929  0.11311369     1.06800
H774        H  0.49616007  0.48055305  0.04048052     0.38600
O775        O  0.50765744  0.47186029  0.02461825    -1.09600
O776        O  0.54027727  0.47058412  0.93854186    -0.66300
Ni777      Ni  0.53417014  0.50056979  0.97487395     1.26300
O778        O  0.53833571  0.00894281  0.10909823    -0.66500
O779        O  0.99431559  0.48876281  0.93536543    -0.78800
C780        C  0.57641134  0.06120152  0.94080047     0.84700
O781        O  0.56075358  0.03154572  0.92984259    -0.66000
Ni782      Ni  0.47362851  0.42821086  0.00552825     1.27400
Ni783      Ni  0.54515430  0.48188792  0.06583494     1.26100
H784        H  0.58450288  0.00709000  0.00164161     0.39200
O785        O  0.50224880  0.40445532  0.47585570    -0.80800
O786        O  0.56914220  0.03084644  0.61718682    -0.65400
O787        O  0.51973270  0.46646905  0.51327827    -1.12000
C788        C  0.62245951  0.01273814  0.43502294     1.06100
O789        O  0.60458031  0.07005356  0.56887927    -0.78600
O790        O  0.58100123  0.05222068  0.47385100    -0.69800
Ni791      Ni  0.48841448  0.42222476  0.52808835     1.34900
C792        C  0.56173599  0.03188115  0.44007269     0.84900
O793        O  0.00346944  0.48524187  0.59924026    -0.79200
O794        O  0.96872400  0.43255819  0.57967749    -0.89500
C795        C  0.58972496  0.06042427  0.60963536     0.84400
O796        O  0.51702669  0.41993384  0.57427057    -0.67700
O797        O  0.62823543  0.03893332  0.45466804    -0.87000
C798        C  0.53879154  0.44020599  0.60600289     0.85300
C799        C  0.97579261  0.45831007  0.60274048     1.06800
H800        H  0.59668009  0.00214887  0.55117467     0.38600
O801        O  0.58379958  0.00791697  0.53241745    -1.09600
O802        O  0.55481782  0.00341127  0.43751500    -0.66300
Ni803      Ni  0.55860392  0.47635001  0.47930251     1.26300
O804        O  0.54904515  0.46987756  0.60777489    -0.66500
O805        O  0.59879002  0.98552677  0.44825768    -0.78800
C806        C  0.51565483  0.41539712  0.43458144     0.84700
O807        O  0.53379701  0.44511971  0.42860998    -0.66000
Ni808      Ni  0.61367403  0.05136895  0.51266196     1.27400
Ni809      Ni  0.54337523  0.49765309  0.56617974     1.26100
H810        H  0.50756308  0.47304533  0.49441646     0.39200
N811        N  0.71365951  0.02994361  0.23816706    -0.03300
C812        C  0.74299505  0.03532731  0.22237861    -0.00700
C813        C  0.75637640  0.02557811  0.25714894    -0.23600
C814        C  0.73478560  0.01423539  0.29573204    -0.23800
C815        C  0.70891792  0.01745569  0.28324929    -0.00800
H816        H  0.78083501  0.02934697  0.25674472     0.12900
H817        H  0.73894879  0.00698001  0.33065151     0.13000
N818        N  0.49243540  0.07589571  0.26641434    -0.03300
C819        C  0.97201634  0.08659057  0.26883836    -0.00700
C820        C  0.96324627  0.08846093  0.31675450    -0.23600
C821        C  0.47621460  0.07773125  0.34364722    -0.23800
C822        C  0.49464310  0.07025287  0.31448001    -0.00800
H823        H  0.94835893  0.09744195  0.32897700     0.12900
H824        H  0.47433756  0.07669837  0.38339331     0.13000
C825        C  0.91555950  0.13715482  0.14826265     0.03300
C826        C  0.93081949  0.16888935  0.13427467    -0.12900
C827        C  0.91191227  0.18169608  0.12265145     0.00800
C828        C  0.87664212  0.16058571  0.11987143    -0.11400
C829        C  0.86084941  0.12846396  0.13371234     0.03300
C830        C  0.88067011  0.11714305  0.14731685    -0.10800
H831        H  0.95781836  0.18433277  0.13673872     0.08900
H832        H  0.86147341  0.16925908  0.10886602     0.06400
H833        H  0.86878626  0.09318607  0.16098304     0.06200
N834        N  0.49805570  0.32897485  0.22446040    -0.03300
C835        C  0.49673078  0.30256932  0.20713470    -0.00700
C836        C  0.50705858  0.29102696  0.24360542    -0.23600
C837        C  0.51487380  0.31091391  0.28484359    -0.23800
C838        C  0.50934490  0.33410831  0.27211790    -0.00800
H839        H  0.50578903  0.26873430  0.24189950     0.12900
H840        H  0.52178503  0.30764775  0.32109865     0.13000
C841        C  0.94052791  0.26510211  0.17084728    -0.26200
C842        C  0.97495361  0.27994675  0.16582249    -0.14200
C843        C  0.48648384  0.26839429  0.13014451     0.36400
C844        C  0.96345246  0.23614277  0.10920244    -0.25600
C845        C  0.92984916  0.21771458  0.12373045    -0.14900
C846        C  0.91789862  0.23379115  0.15132199     0.37500
N847        N  0.88360381  0.21768354  0.16428092    -0.89100
H848        H  0.93148642  0.27566368  0.19629875     0.18600
H849        H  0.47324744  0.22722829  0.08382159     0.18600
N850        N  0.52127425  0.28444919  0.11895690    -0.88100
H851        H  0.87433314  0.23084308  0.15143993     0.35900
H852        H  0.88248075  0.21777664  0.20279621     0.41000
H853        H  0.53536411  0.30694271  0.13747287     0.40700
H854        H  0.52342402  0.28885345  0.08129318     0.35600
C855        C  0.97405610  0.13269038  0.23688259    -0.26200
C856        C  0.96453557  0.10088691  0.22844826    -0.14200
C857        C  0.94176072  0.08211053  0.18954771     0.36400
C858        C  0.92792881  0.09516256  0.16086827    -0.25600
C859        C  0.93551401  0.12630286  0.17194108    -0.14900
C860        C  0.95911434  0.14519105  0.21036215     0.37500
N861        N  0.96578761  0.17594552  0.22582450    -0.89100
H862        H  0.99101725  0.14703475  0.26759928     0.18600
H863        H  0.90967832  0.08024170  0.13180816     0.18600
N864        N  0.93081839  0.04923033  0.18140699    -0.88100
H865        H  0.99149701  0.19298459  0.22374558     0.35900
H866        H  0.95926161  0.17505064  0.26276576     0.41000
H867        H  0.90488107  0.03492414  0.18511744     0.40700
H868        H  0.93602163  0.04614723  0.14503995     0.35600
C869        C  0.80719939  0.07486871  0.12483096    -0.26200
C870        C  0.82424459  0.10716064  0.14238584    -0.14200
C871        C  0.80885094  0.11558170  0.17858952     0.36400
C872        C  0.77912716  0.09157965  0.19941064    -0.25600
C873        C  0.76457332  0.05908936  0.18607871    -0.14900
C874        C  0.77791516  0.05066751  0.14713605     0.37500
N875        N  0.76325406  0.01738886  0.13336254    -0.89100
H876        H  0.81872238  0.06812420  0.09720669     0.18600
H877        H  0.76949104  0.09813986  0.23027315     0.18600
N878        N  0.82420316  0.14772699  0.19854917    -0.88100
H879        H  0.77641556  0.01509770  0.10475391     0.35900
H880        H  0.73909007  0.00807554  0.11938272     0.41000
H881        H  0.82563305  0.16205357  0.17033378     0.40700
H882        H  0.84819206  0.15605526  0.21220867     0.35600
C883        C  0.53668284  0.40714460  0.35574880    -0.26200
C884        C  0.51219439  0.39390655  0.39225071    -0.14200
C885        C  0.48546399  0.36121150  0.38630380     0.36400
C886        C  0.48428637  0.34280409  0.34522109    -0.25600
C887        C  0.50903584  0.35611533  0.30948246    -0.14900
C888        C  0.53547662  0.38864477  0.31495800     0.37500
N889        N  0.56211218  0.40321698  0.28080878    -0.89100
H890        H  0.55759773  0.43203826  0.35937859     0.18600
H891        H  0.96198554  0.31696204  0.33954455     0.18600
N892        N  0.95655508  0.34601236  0.41765000    -0.88100
H893        H  0.55202757  0.40198444  0.24597026     0.35900
H894        H  0.57315509  0.39016650  0.27905382     0.41000
H895        H  0.94704908  0.36040537  0.41989385     0.40700
H896        H  0.96496584  0.34496295  0.45267703     0.35600
C897        C  0.64666719  0.98759982  0.38613934    -0.26200
C898        C  0.64353312  0.01370265  0.39445278    -0.14200
C899        C  0.65964588  0.03964248  0.36276541     0.36400
C900        C  0.67971494  0.03973666  0.32528275    -0.25600
C901        C  0.68399778  0.01433035  0.31859762    -0.14900
C902        C  0.66688305  0.98783595  0.34880166     0.37500
N903        N  0.66983589  0.96103918  0.34146164    -0.89100
H904        H  0.63387142  0.96710226  0.40930021     0.18600
H905        H  0.69288626  0.06032606  0.30238492     0.18600
N906        N  0.65540793  0.06575443  0.36800076    -0.88100
H907        H  0.64589618  0.94048410  0.33410932     0.35900
H908        H  0.67898634  0.95803357  0.37441314     0.41000
H909        H  0.64533874  0.06723668  0.33473087     0.40700
H910        H  0.67901519  0.08699928  0.37393888     0.35600
C911        C  0.00660666  0.02942869  0.33679289    -0.26200
C912        C  0.51702612  0.06206794  0.33633689    -0.14200
C913        C  0.54316324  0.08457466  0.36909607     0.36400
C914        C  0.55798122  0.07430443  0.40134554    -0.25600
C915        C  0.54713830  0.04184440  0.40194553    -0.14900
C916        C  0.52239725  0.01977584  0.36655038     0.37500
N917        N  0.99762790  0.48482929  0.38554810    -0.89100
H918        H  0.98467700  0.01186068  0.31467770     0.18600
H919        H  0.57746293  0.09172941  0.42715600     0.18600
N920        N  0.55324400  0.11754233  0.37132910    -0.88100
H921        H  0.99432742  0.47183890  0.35252498     0.35900
H922        H  0.97403804  0.47822724  0.39742456     0.41000
H923        H  0.56369957  0.12722760  0.33758183     0.40700
H924        H  0.57212329  0.13089406  0.39832903     0.35600
C925        C  0.52084941  0.36454346  0.15568212    -0.26200
C926        C  0.49756502  0.35149975  0.19336794    -0.14200
C927        C  0.47458591  0.36062213  0.19899554     0.36400
C928        C  0.47645135  0.38348059  0.16777385    -0.25600
C929        C  0.49979813  0.39625964  0.13007588    -0.14900
C930        C  0.52204564  0.38650016  0.12402215     0.37500
N931        N  0.54633906  0.39880892  0.08616420    -0.89100
H932        H  0.53850903  0.35769830  0.15120519     0.18600
H933        H  0.96072342  0.39084480  0.17382127     0.18600
N934        N  0.94970433  0.34661764  0.23620440    -0.88100
H935        H  0.56158902  0.42382309  0.09108821     0.35900
H936        H  0.53377383  0.39305256  0.05191441     0.41000
H937        H  0.94874887  0.32787132  0.25354768     0.40700
H938        H  0.92675105  0.33603197  0.21711518     0.35600
C939        C  0.54600119  0.08019447  0.16192041    -0.26200
C940        C  0.52995918  0.04749258  0.14715093    -0.14200
C941        C  0.49998378  0.02463918  0.17039820     0.36400
C942        C  0.48806102  0.03478410  0.20915332    -0.25600
C943        C  0.50477785  0.06717753  0.22472617    -0.14900
C944        C  0.53373094  0.09014167  0.20028172     0.37500
N945        N  0.04849194  0.12321500  0.21090073    -0.89100
H946        H  0.56884877  0.09814259  0.14461250     0.18600
H947        H  0.46547044  0.01735760  0.22751721     0.18600
N948        N  0.48159795  0.99124983  0.15459736    -0.88100
H949        H  0.03157453  0.12990430  0.20666982     0.35900
H950        H  0.05636636  0.12723007  0.24792084     0.41000
H951        H  0.47251008  0.98934179  0.11865103     0.40700
H952        H  0.46065333  0.97768080  0.17621215     0.35600
C953        C  0.63473856  0.99679077  0.16214449    -0.26200
C954        C  0.63768428  0.02486305  0.14727910    -0.14200
C955        C  0.66644079  0.05503801  0.16342402     0.36400
C956        C  0.69121115  0.05636137  0.19333458    -0.25600
C957        C  0.68804504  0.02824636  0.20764395    -0.14900
C958        C  0.65947109  0.99818036  0.19162404     0.37500
N959        N  0.65539819  0.96856438  0.20346036    -0.89100
H960        H  0.61330800  0.97337046  0.15009555     0.18600
H961        H  0.71285970  0.07947573  0.20576681     0.18600
N962        N  0.67078614  0.08448928  0.14977270    -0.88100
H963        H  0.65343235  0.96627132  0.24159162     0.35900
H964        H  0.67653451  0.96918573  0.19227829     0.41000
H965        H  0.69315378  0.09763769  0.13094569     0.40700
H966        H  0.67312293  0.09769003  0.18209163     0.35600
C967        C  0.93612559  0.43341345  0.67119350    -0.26200
C968        C  0.95025654  0.45657032  0.63509786    -0.14200
C969        C  0.93856065  0.47665862  0.62897523     0.36400
C970        C  0.91403109  0.47393863  0.65981761    -0.25600
C971        C  0.90037382  0.45136264  0.69668680    -0.14900
C972        C  0.91107849  0.43033605  0.70185789     0.37500
N973        N  0.89688463  0.40547094  0.73687953    -0.89100
H974        H  0.94452208  0.41747617  0.67542543     0.18600
H975        H  0.90545324  0.48969134  0.65513806     0.18600
N976        N  0.95014807  0.49913614  0.59056519    -0.88100
H977        H  0.88599969  0.38348529  0.71699546     0.35900
H978        H  0.87743337  0.40456166  0.75536033     0.41000
H979        H  0.94599686  0.48667415  0.55667468     0.40700
H980        H  0.97579792  0.51596886  0.59593265     0.35600
C981        C  0.93779577  0.48148859  0.80904687    -0.26200
C982        C  0.90301285  0.46168150  0.81229973    -0.14200
C983        C  0.88898757  0.44047093  0.85154428     0.36400
C984        C  0.90982111  0.44069880  0.88790261    -0.25600
C985        C  0.94464308  0.46186968  0.88663582    -0.14900
C986        C  0.95887475  0.48168332  0.84553386     0.37500
N987        N  0.99456937  0.50169083  0.84063862    -0.89100
H988        H  0.94850293  0.49705244  0.77823273     0.18600
H989        H  0.89853707  0.42471486  0.91811488     0.18600
N990        N  0.85360502  0.41809579  0.85523569    -0.88100
H991        H  0.00079896  0.51495974  0.80888542     0.35900
H992        H  0.00305443  0.48654894  0.83582671     0.41000
H993        H  0.84418048  0.40411823  0.82232200     0.40700
H994        H  0.84234765  0.43075804  0.86043849     0.35600
C995        C  0.78161225  0.40798415  0.60907038    -0.26200
C996        C  0.76698374  0.37561028  0.62089867    -0.14200
C997        C  0.78573240  0.36873782  0.65246728     0.36400
C998        C  0.81535332  0.39383854  0.67569938    -0.25600
C999        C  0.82622949  0.42585337  0.67045220    -0.14900
C1000       C  0.81034205  0.43319833  0.63459747     0.37500
N1001       N  0.82159829  0.46572906  0.62497424    -0.89100
H1002       H  0.76907296  0.41407621  0.58293848     0.18600
H1003       H  0.82765464  0.38798083  0.70270110     0.18600
N1004       N  0.77366844  0.33664991  0.66524524    -0.88100
H1005       H  0.82800451  0.46929242  0.58787039     0.35900
H1006       H  0.84346738  0.48211186  0.64536681     0.41000
H1007       H  0.79172116  0.33198752  0.65590261     0.40700
H1008       H  0.77087682  0.33519162  0.70348743     0.35600
C1009       C  0.59442229  0.43174927  0.69810632    -0.26200
C1010       C  0.57234966  0.39999402  0.71192575    -0.14200
C1011       C  0.53968462  0.38170006  0.69052406     0.36400
C1012       C  0.52980613  0.39567955  0.65671485    -0.25600
C1013       C  0.55149464  0.42766590  0.64314558    -0.14900
C1014       C  0.58439530  0.44581211  0.66429850     0.37500
N1015       N  0.60841101  0.47819470  0.65152522    -0.89100
H1016       H  0.61943818  0.44587223  0.71447664     0.18600
H1017       H  0.50451215  0.38127029  0.64129677     0.18600
N1018       N  0.51562411  0.34901175  0.70275604    -0.88100
H1019       H  0.59959487  0.49245202  0.66199977     0.35900
H1020       H  0.61109323  0.47853591  0.61327885     0.41000
H1021       H  0.52559733  0.34080465  0.72761438     0.40700
H1022       H  0.00637821  0.33214178  0.67102987     0.35600
C1023       C  0.52426205  0.38058409  0.84112103    -0.26200
C1024       C  0.55624480  0.39980302  0.82224984    -0.14200
C1025       C  0.57631472  0.43276344  0.83580185     0.36400
C1026       C  0.56456757  0.44557562  0.87038672    -0.25600
C1027       C  0.53324405  0.42598400  0.89201599    -0.14900
C1028       C  0.51216078  0.39333128  0.87509583     0.37500
N1029       N  0.47874580  0.37305395  0.89260830    -0.89100
H1030       H  0.50909041  0.35520645  0.83040025     0.18600
H1031       H  0.58060098  0.47076077  0.88183632     0.18600
N1032       N  0.60915679  0.45274779  0.81626576    -0.88100
H1033       H  0.46716154  0.34963905  0.87744363     0.35900
H1034       H  0.46491848  0.38185045  0.87954330     0.41000
H1035       H  0.62378335  0.44483249  0.82935155     0.40700
H1036       H  0.62059379  0.47653987  0.82956995     0.35600
C1037       C  0.65164599  0.38680341  0.71970220    -0.26200
C1038       C  0.61763421  0.37160678  0.70745546    -0.14200
C1039       C  0.60375961  0.34968760  0.66639956     0.36400
C1040       C  0.62410421  0.34250140  0.63958408    -0.25600
C1041       C  0.65755694  0.35576544  0.65450770    -0.14900
C1042       C  0.67142370  0.37854596  0.69507388     0.37500
N1043       N  0.70410492  0.39102187  0.71601142    -0.89100
H1044       H  0.66207546  0.40275660  0.75239419     0.18600
H1045       H  0.61324688  0.32481887  0.60904026     0.18600
N1046       N  0.56872632  0.33327787  0.65411938    -0.88100
H1047       H  0.72232253  0.40653830  0.69183440     0.35900
H1048       H  0.70656677  0.37198612  0.72284609     0.41000
H1049       H  0.55552074  0.31839575  0.68301674     0.40700
H1050       H  0.56254114  0.31816775  0.62261762     0.35600
C1051       C  0.58003436  0.10739167  0.71488285    -0.26200
C1052       C  0.61174764  0.13637541  0.71686569    -0.14200
C1053       C  0.63647109  0.13936025  0.68540867     0.36400
C1054       C  0.62869801  0.11426395  0.65118479    -0.25600
C1055       C  0.59689877  0.08528522  0.64883122    -0.14900
C1056       C  0.57251340  0.08179848  0.68211684     0.37500
N1057       N  0.53965405  0.05303493  0.68284480    -0.89100
H1058       H  0.56086208  0.10462334  0.73920475     0.18600
H1059       H  0.64800164  0.11729086  0.62687714     0.18600
N1060       N  0.66998562  0.16706016  0.68974884    -0.88100
H1061       H  0.04177057  0.03323170  0.69309757     0.35900
H1062       H  0.02880400  0.04749393  0.64841821     0.41000
H1063       H  0.67665412  0.17737318  0.65532854     0.40700
H1064       H  0.68572349  0.15949595  0.69848317     0.35600
C1065       C  0.56920659  0.11481591  0.85426660    -0.26200
C1066       C  0.59945848  0.12854078  0.82958332    -0.14200
C1067       C  0.62122003  0.11869376  0.84010655     0.36400
C1068       C  0.61254068  0.09582724  0.87547653    -0.25600
C1069       C  0.58290927  0.08307778  0.90137699    -0.14900
C1070       C  0.56057593  0.09215520  0.89005193     0.37500
N1071       N  0.02855793  0.07575791  0.91153705    -0.89100
H1072       H  0.55270589  0.12271076  0.84694574     0.18600
H1073       H  0.62963014  0.08881741  0.88410530     0.18600
N1074       N  0.65314938  0.13291486  0.81792820    -0.88100
H1075       H  0.02907850  0.09403838  0.93229645     0.35900
H1076       H  0.02413041  0.05825913  0.93602093     0.41000
H1077       H  0.66664842  0.15781533  0.82443544     0.40700
H1078       H  0.64941001  0.12776547  0.77996330     0.35600
C1079       C  0.62492159  0.21142617  0.66523580    -0.26200
C1080       C  0.64589698  0.21105214  0.70097993    -0.14200
C1081       C  0.68041202  0.23563453  0.70233574     0.36400
C1082       C  0.69233697  0.26153497  0.67181365    -0.25600
C1083       C  0.67066381  0.26429915  0.64075545    -0.14900
C1084       C  0.63704141  0.23783613  0.63481464     0.37500
N1085       N  0.61495976  0.23882368  0.60013883    -0.89100
H1086       H  0.59845835  0.19266208  0.66431356     0.18600
H1087       H  0.71822910  0.28115910  0.67660273     0.18600
N1088       N  0.70366762  0.23635877  0.73692935    -0.88100
H1089       H  0.59103633  0.21771369  0.60061866     0.35900
H1090       H  0.62400142  0.23957408  0.56486463     0.41000
H1091       H  0.69242617  0.21574471  0.75740003     0.40700
H1092       H  0.71182668  0.25584858  0.76195975     0.35600
N1093       N  0.61993509  0.66142961  0.75341786    -0.03300
C1094       C  0.63369761  0.69326807  0.74789041    -0.00700
C1095       C  0.63467494  0.70829344  0.79222576    -0.23600
C1096       C  0.62115811  0.68517676  0.82648722    -0.23800
C1097       C  0.61255820  0.65686512  0.80196917    -0.00800
H1098       H  0.64469950  0.73354989  0.79895372     0.12900
H1099       H  0.61882446  0.68875986  0.86546751     0.13000
N1100       N  0.58247369  0.88773449  0.75380087    -0.03300
C1101       C  0.59718177  0.87109914  0.75125462    -0.00700
C1102       C  0.59563999  0.85809715  0.79619501    -0.23600
C1103       C  0.57948677  0.86682696  0.82749602    -0.23800
C1104       C  0.57184852  0.88494899  0.80069943    -0.00800
H1105       H  0.60652807  0.84488540  0.80572206     0.12900
H1106       H  0.57497376  0.86166443  0.86615986     0.13000
C1107       C  0.67585338  0.84197958  0.63490535     0.03300
C1108       C  0.70874383  0.86265529  0.62011888    -0.12900
C1109       C  0.72982696  0.85164444  0.61298631     0.00800
C1110       C  0.71508242  0.81816568  0.61026475    -0.11400
C1111       C  0.68194685  0.79673098  0.62516552     0.03300
C1112       C  0.66258353  0.80909088  0.63722632    -0.10800
H1113       H  0.71874444  0.88801610  0.62017189     0.08900
H1114       H  0.73025565  0.80892005  0.60152172     0.06400
H1115       H  0.63830134  0.79376321  0.65320584     0.06200
N1116       N  0.87600831  0.95025517  0.72899882    -0.03300
C1117       C  0.84837031  0.94819238  0.71171139    -0.00700
C1118       C  0.83625902  0.95911603  0.74772172    -0.23600
C1119       C  0.85703810  0.96794395  0.78864812    -0.23800
C1120       C  0.88092056  0.96178831  0.77643262    -0.00800
H1121       H  0.81297710  0.95772610  0.74613059     0.12900
H1122       H  0.85371170  0.97588980  0.82445621     0.13000
O1123       O  0.58437962  0.57115843  0.98387403    -0.80800
O1124       O  0.51977795  0.94927778  0.11113132    -0.65400
O1125       O  0.57066759  0.51230945  0.01792976    -1.12000
C1126       C  0.96753638  0.96386614  0.92789265     1.06100
O1127       O  0.48766190  0.90979254  0.05540458    -0.78600
O1128       O  0.49920756  0.92204832  0.95836781    -0.66200
Ni1129     Ni  0.59843774  0.55673469  0.03838129     1.34900
C1130       C  0.52365574  0.94125812  0.93222368     0.84900
O1131       O  0.58424076  0.49390487  0.10444635    -0.79200
O1132       O  0.61682197  0.54692977  0.09292832    -0.89500
C1133       C  0.50182116  0.91974828  0.09807308     0.84400
O1134       O  0.56705286  0.55835323  0.07967985    -0.67700
O1135       O  0.95504642  0.94089077  0.95758843    -0.87000
C1136       C  0.54559905  0.53788670  0.10847114     0.85300
C1137       C  0.61101817  0.52169735  0.11314734     1.06800
H1138       H  0.49584943  0.97994375  0.04257621     0.38600
O1139       O  0.50754580  0.97175534  0.02589710    -1.09600
O1140       O  0.53935340  0.97167703  0.93797403    -0.66300
Ni1141     Ni  0.53344228  0.00117489  0.97638883     1.26300
O1142       O  0.53770770  0.50907216  0.10804205    -0.66500
O1143       O  0.99763759  0.98781408  0.93154519    -0.78800
C1144       C  0.57711183  0.56006399  0.93932447     0.84700
O1145       O  0.56228819  0.53047496  0.92848681    -0.66000
Ni1146     Ni  0.47394681  0.92791960  0.00611620     1.27400
Ni1147     Ni  0.54562055  0.98199777  0.06598065     1.26100
H1148       H  0.58479873  0.50649146  0.00242422     0.39200
O1149       O  0.50381515  0.90435671  0.47797689    -0.80800
O1150       O  0.56789459  0.53082349  0.61630662    -0.65400
O1151       O  0.52093517  0.96641573  0.51439285    -1.12000
C1152       C  0.62173511  0.51298880  0.43428397     1.06100
O1153       O  0.60340556  0.56994963  0.56793895    -0.78600
O1154       O  0.58077739  0.55269489  0.47276458    -0.69800
Ni1155     Ni  0.48959020  0.92222059  0.52933945     1.34900
C1156       C  0.56130625  0.53237677  0.43914817     0.84900
O1157       O  0.00393793  0.98662007  0.59834492    -0.79200
O1158       O  0.97027327  0.93362007  0.58121279    -0.89500
C1159       C  0.58854480  0.56038878  0.60865826     0.84400
O1160       O  0.51782129  0.91993128  0.57631568    -0.67700
O1161       O  0.62782914  0.53913614  0.45456316    -0.87000
C1162       C  0.53986079  0.94029295  0.60766790     0.85300
C1163       C  0.97674929  0.95948024  0.60318501     1.06800
H1164       H  0.59536240  0.50191164  0.55021475     0.38600
O1165       O  0.58261322  0.50787059  0.53147275    -1.09600
O1166       O  0.55381792  0.50372504  0.43676417    -0.66300
Ni1167     Ni  0.55974809  0.97621601  0.48048010     1.26300
O1168       O  0.55042520  0.97003716  0.60887903    -0.66500
O1169       O  0.59766882  0.48574863  0.44683541    -0.78800
C1170       C  0.51699297  0.91505796  0.43652194     0.84700
O1171       O  0.53492875  0.94473583  0.43006897    -0.66000
Ni1172     Ni  0.61287821  0.55138750  0.51219109     1.27400
Ni1173     Ni  0.54461054  0.99767909  0.56715903     1.26100
H1174       H  0.50876117  0.97298257  0.49545473     0.39200
N1175       N  0.71335579  0.53008369  0.23770346    -0.03300
C1176       C  0.74217405  0.53446379  0.22149704    -0.00700
C1177       C  0.75501081  0.52405594  0.25606743    -0.23600
C1178       C  0.73357857  0.51329942  0.29488610    -0.23800
C1179       C  0.70835349  0.51751247  0.28273046    -0.00800
H1180       H  0.77910690  0.52704984  0.25541460     0.12900
H1181       H  0.73740476  0.50564561  0.32965601     0.13000
N1182       N  0.49407060  0.57816295  0.26498900    -0.03300
C1183       C  0.97704396  0.59121386  0.26788918    -0.00700
C1184       C  0.97082023  0.59550633  0.31631584    -0.23600
C1185       C  0.48162163  0.58305996  0.34350402    -0.23800
C1186       C  0.49811553  0.57390813  0.31308037    -0.00800
H1187       H  0.95781495  0.60636888  0.32910649     0.12900
H1188       H  0.48129697  0.58311525  0.38342576     0.13000
C1189       C  0.91626764  0.63833267  0.14893407     0.03300
C1190       C  0.93083005  0.66978325  0.13386664    -0.12900
C1191       C  0.91132898  0.68203259  0.12279523     0.00800
C1192       C  0.87613736  0.66051796  0.12072337    -0.11400
C1193       C  0.86097387  0.62859918  0.13513117     0.03300
C1194       C  0.88136804  0.61795755  0.14902317    -0.10800
H1195       H  0.95780599  0.68551266  0.13478585     0.08900
H1196       H  0.86058087  0.66876843  0.10974078     0.06400
H1197       H  0.86990749  0.59420202  0.16328074     0.06200
N1198       N  0.49721349  0.82857564  0.22618236    -0.03300
C1199       C  0.49460890  0.80168612  0.20817665    -0.00700
C1200       C  0.50420947  0.78913994  0.24399918    -0.23600
C1201       C  0.51301820  0.80897665  0.28553175    -0.23800
C1202       C  0.50875339  0.83311275  0.27360026    -0.00800
H1203       H  0.50195021  0.76637584  0.24162016     0.12900
H1204       H  0.51972536  0.80509927  0.32148968     0.13000
C1205       C  0.93909376  0.76477377  0.17242503    -0.26200
C1206       C  0.97346670  0.78017856  0.16599782    -0.14200
C1207       C  0.48437472  0.76882626  0.12990951     0.36400
C1208       C  0.96194399  0.73687104  0.10827340    -0.25600
C1209       C  0.92862026  0.71795627  0.12386491    -0.14900
C1210       C  0.91658915  0.73353029  0.15260765     0.37500
N1211       N  0.88239919  0.71696916  0.16630220    -0.89100
H1212       H  0.93012412  0.77489762  0.19885438     0.18600
H1213       H  0.47124656  0.72795258  0.08296203     0.18600
N1214       N  0.51916463  0.78501768  0.11866270    -0.88100
H1215       H  0.87272136  0.72996035  0.15430621     0.35900
H1216       H  0.88162170  0.71682366  0.20483981     0.41000
H1217       H  0.53322097  0.80737979  0.13756148     0.40700
H1218       H  0.52130510  0.78971293  0.08111010     0.35600
C1219       C  0.97857168  0.63634212  0.23301397    -0.26200
C1220       C  0.96818509  0.60415672  0.22707404    -0.14200
C1221       C  0.94347467  0.58413955  0.19099519     0.36400
C1222       C  0.92869470  0.59644093  0.16269269    -0.25600
C1223       C  0.93706405  0.62805068  0.17173018    -0.14900
C1224       C  0.96259219  0.64813010  0.20733505     0.37500
N1225       N  0.97033660  0.67949493  0.22119689    -0.89100
H1226       H  0.99711360  0.65169302  0.26156581     0.18600
H1227       H  0.90912278  0.58060740  0.13573241     0.18600
N1228       N  0.93154568  0.55085819  0.18565541    -0.88100
H1229       H  0.99585398  0.69612435  0.21616853     0.35900
H1230       H  0.96575595  0.68003994  0.25877539     0.41000
H1231       H  0.90592883  0.53729494  0.19234368     0.40700
H1232       H  0.93468213  0.54598641  0.14904059     0.35600
C1233       C  0.80779705  0.57456350  0.12591627    -0.26200
C1234       C  0.82438656  0.60680729  0.14354212    -0.14200
C1235       C  0.80835451  0.61496955  0.17896938     0.36400
C1236       C  0.77844514  0.59078798  0.19908284    -0.25600
C1237       C  0.76423703  0.55837255  0.18568985    -0.14900
C1238       C  0.77813850  0.55019775  0.14725667     0.37500
N1239       N  0.76347861  0.51701133  0.13282487    -0.89100
H1240       H  0.81975809  0.56802570  0.09876529     0.18600
H1241       H  0.76831788  0.59717336  0.22946124     0.18600
N1242       N  0.82316442  0.64705010  0.19885683    -0.88100
H1243       H  0.77699703  0.51492871  0.10457553     0.35900
H1244       H  0.73955195  0.50797613  0.11807636     0.41000
H1245       H  0.82460078  0.66128663  0.17049364     0.40700
H1246       H  0.84710204  0.65564371  0.21305435     0.35600
C1247       C  0.53778006  0.90629970  0.35790690    -0.26200
C1248       C  0.51340518  0.89332280  0.39456058    -0.14200
C1249       C  0.48660006  0.86063345  0.38909076     0.36400
C1250       C  0.48486184  0.84213925  0.34775723    -0.25600
C1251       C  0.50934100  0.85525017  0.31162838    -0.14900
C1252       C  0.53624029  0.88759819  0.31717732     0.37500
N1253       N  0.56305605  0.90172906  0.28329962    -0.89100
H1254       H  0.55887309  0.93111967  0.36141558     0.18600
H1255       H  0.96248858  0.81816085  0.33858350     0.18600
N1256       N  0.95740486  0.84686474  0.41738218    -0.88100
H1257       H  0.55329413  0.90078632  0.24834805     0.35900
H1258       H  0.57356900  0.88819875  0.28177576     0.41000
H1259       H  0.94760133  0.86098643  0.42023599     0.40700
H1260       H  0.96624390  0.84587406  0.45209577     0.35600
C1261       C  0.64520364  0.48751277  0.38438794    -0.26200
C1262       C  0.64298040  0.51407277  0.39381240    -0.14200
C1263       C  0.66014264  0.54057441  0.36326319     0.36400
C1264       C  0.68020914  0.54062502  0.32575813    -0.25600
C1265       C  0.68350939  0.51466489  0.31800464    -0.14900
C1266       C  0.66541082  0.48771296  0.34706857     0.37500
N1267       N  0.66731683  0.46037921  0.33853356    -0.89100
H1268       H  0.63164518  0.46662095  0.40663058     0.18600
H1269       H  0.69411597  0.56154658  0.30366676     0.18600
N1270       N  0.65698388  0.56730649  0.36965908    -0.88100
H1271       H  0.64314497  0.44038585  0.33036862     0.35900
H1272       H  0.67581322  0.45639234  0.37125800     0.41000
H1273       H  0.64754446  0.56978535  0.33654272     0.40700
H1274       H  0.68086981  0.58804371  0.37645589     0.35600
C1275       C  0.00331423  0.52933318  0.34129550    -0.26200
C1276       C  0.51955898  0.56425059  0.33350626    -0.14200
C1277       C  0.54763720  0.58660698  0.36350298     0.36400
C1278       C  0.56133983  0.57564338  0.39650910    -0.25600
C1279       C  0.54738808  0.54267591  0.40067348    -0.14900
C1280       C  0.52046266  0.52048104  0.36823385     0.37500
N1281       N  0.00688875  0.98511302  0.37136778    -0.89100
H1282       H  0.97886360  0.51254076  0.32421232     0.18600
H1283       H  0.58248956  0.59302232  0.42008600     0.18600
N1284       N  0.56083684  0.62030923  0.36240474    -0.88100
H1285       H  0.00870089  0.97687422  0.33632425     0.35900
H1286       H  0.98153163  0.97340532  0.37922883     0.41000
H1287       H  0.57117464  0.62793041  0.32785722     0.40700
H1288       H  0.58048714  0.63345929  0.38837770     0.35600
C1289       C  0.52174523  0.86546359  0.15927208    -0.26200
C1290       C  0.49761162  0.85180288  0.19573117    -0.14200
C1291       C  0.47417324  0.86043003  0.20003445     0.36400
C1292       C  0.47609618  0.88308645  0.16827623    -0.25600
C1293       C  0.50021795  0.89641084  0.13166286    -0.14900
C1294       C  0.52319099  0.88740810  0.12730157     0.37500
N1295       N  0.54829923  0.90028420  0.09063108    -0.89100
H1296       H  0.53976295  0.85899094  0.15588817     0.18600
H1297       H  0.95674946  0.88715737  0.16694387     0.18600
N1298       N  0.94608780  0.84335562  0.23005353    -0.88100
H1299       H  0.56308965  0.92528783  0.09589893     0.35900
H1300       H  0.53641726  0.89453575  0.05582606     0.41000
H1301       H  0.94671884  0.82625849  0.25003929     0.40700
H1302       H  0.92380068  0.83070956  0.20893195     0.35600
C1303       C  0.54594256  0.58107805  0.15902821    -0.26200
C1304       C  0.52993429  0.54821509  0.14542852    -0.14200
C1305       C  0.50011297  0.52569338  0.16933299     0.36400
C1306       C  0.48863584  0.53629599  0.20814196    -0.25600
C1307       C  0.50544209  0.56887692  0.22268701    -0.14900
C1308       C  0.53389904  0.59152036  0.19699000     0.37500
N1309       N  0.04902303  0.62419680  0.20470355    -0.89100
H1310       H  0.56854299  0.59882014  0.14098810     0.18600
H1311       H  0.46635921  0.51909639  0.22733607     0.18600
N1312       N  0.48146744  0.49218701  0.15417536    -0.88100
H1313       H  0.03190650  0.63041081  0.19846151     0.35900
H1314       H  0.05679462  0.62954833  0.24177170     0.41000
H1315       H  0.47229522  0.49004551  0.11819982     0.40700
H1316       H  0.46057111  0.47892648  0.17599963     0.35600
C1317       C  0.63489167  0.49674506  0.16070244    -0.26200
C1318       C  0.63724334  0.52476421  0.14717582    -0.14200
C1319       C  0.66555279  0.55498199  0.16423596     0.36400
C1320       C  0.69043365  0.55640403  0.19396861    -0.25600
C1321       C  0.68779948  0.52833869  0.20707654    -0.14900
C1322       C  0.65976093  0.49824680  0.18994231     0.37500
N1323       N  0.65635830  0.46876157  0.20057849    -0.89100
H1324       H  0.61386797  0.47332541  0.14771618     0.18600
H1325       H  0.71173464  0.57952411  0.20719722     0.18600
N1326       N  0.66927291  0.58435655  0.15178441    -0.88100
H1327       H  0.65439777  0.46597630  0.23861564     0.35900
H1328       H  0.67778855  0.47003869  0.18909130     0.41000
H1329       H  0.69170082  0.59815049  0.13330925     0.40700
H1330       H  0.67114939  0.59694995  0.18458338     0.35600
C1331       C  0.93710059  0.93410899  0.67170669    -0.26200
C1332       C  0.95117640  0.95752897  0.63596676    -0.14200
C1333       C  0.93931005  0.97756598  0.63060328     0.36400
C1334       C  0.91446120  0.97426742  0.66139542    -0.25600
C1335       C  0.90077019  0.95132688  0.69773204    -0.14900
C1336       C  0.91187511  0.93057559  0.70248384     0.37500
N1337       N  0.89792688  0.90553310  0.73720345    -0.89100
H1338       H  0.94568321  0.91829407  0.67557809     0.18600
H1339       H  0.90570206  0.98990925  0.65715689     0.18600
N1340       N  0.95107434  0.00063729  0.59306845    -0.88100
H1341       H  0.88736967  0.88366809  0.71707919     0.35900
H1342       H  0.87827368  0.90422102  0.75569970     0.41000
H1343       H  0.94735245  0.98874173  0.55876345     0.40700
H1344       H  0.97663910  0.01759192  0.59913226     0.35600
C1345       C  0.93790414  0.98145055  0.80943500    -0.26200
C1346       C  0.90321832  0.96107488  0.81331832    -0.14200
C1347       C  0.88989641  0.94011280  0.85288715     0.36400
C1348       C  0.91130428  0.94122776  0.88902264    -0.25600
C1349       C  0.94608774  0.96273220  0.88696093    -0.14900
C1350       C  0.95962506  0.98233257  0.84548032     0.37500
N1351       N  0.99520036  0.00281282  0.83965944    -0.89100
H1352       H  0.94803613  0.99686551  0.77836863     0.18600
H1353       H  0.90042317  0.92533641  0.91941891     0.18600
N1354       N  0.85469903  0.91691706  0.85696262    -0.88100
H1355       H  0.00079571  0.01598784  0.80790030     0.35900
H1356       H  0.00401775  0.98798615  0.83416595     0.41000
H1357       H  0.84549844  0.90267923  0.82426303     0.40700
H1358       H  0.84264405  0.92882960  0.86208771     0.35600
C1359       C  0.78154074  0.90765828  0.61064283    -0.26200
C1360       C  0.76681858  0.87527523  0.62238234    -0.14200
C1361       C  0.78539289  0.86823377  0.65400672     0.36400
C1362       C  0.81529361  0.89319437  0.67674607    -0.25600
C1363       C  0.82634266  0.92524996  0.67154595    -0.14900
C1364       C  0.81030295  0.93275314  0.63620966     0.37500
N1365       N  0.82128312  0.96532183  0.62747085    -0.89100
H1366       H  0.76892104  0.91384862  0.58482875     0.18600
H1367       H  0.82754617  0.88723759  0.70369243     0.18600
N1368       N  0.77275941  0.83618181  0.66764901    -0.88100
H1369       H  0.82759200  0.96927239  0.59037536     0.35900
H1370       H  0.84313748  0.98164862  0.64793567     0.41000
H1371       H  0.79041367  0.83093363  0.65860550     0.40700
H1372       H  0.77007777  0.83518027  0.70593703     0.35600
C1373       C  0.59529128  0.93195197  0.70055889    -0.26200
C1374       C  0.57331787  0.90009418  0.71401318    -0.14200
C1375       C  0.54071072  0.88178468  0.69239202     0.36400
C1376       C  0.53093117  0.89571529  0.65831216    -0.25600
C1377       C  0.55254719  0.92777224  0.64497161    -0.14900
C1378       C  0.58530063  0.94602796  0.66668604     0.37500
N1379       N  0.60915869  0.97861058  0.65466581    -0.89100
H1380       H  0.62014984  0.94619055  0.71744984     0.18600
H1381       H  0.50569893  0.88124230  0.64268146     0.18600
N1382       N  0.51651152  0.84920357  0.70496149    -0.88100
H1383       H  0.59998414  0.99254643  0.66527069     0.35900
H1384       H  0.61218486  0.97934858  0.61648679     0.41000
H1385       H  0.52635845  0.84106836  0.73018510     0.40700
H1386       H  0.00836614  0.83293504  0.66884695     0.35600
C1387       C  0.52477468  0.88270114  0.84009668    -0.26200
C1388       C  0.55748074  0.90147653  0.82370673    -0.14200
C1389       C  0.57820113  0.93409169  0.83916133     0.36400
C1390       C  0.56626494  0.94691192  0.87338217    -0.25600
C1391       C  0.53417808  0.92756108  0.89277308    -0.14900
C1392       C  0.51258495  0.89544764  0.87383127     0.37500
N1393       N  0.47854215  0.87572631  0.88915747    -0.89100
H1394       H  0.50913586  0.85759285  0.82790091     0.18600
H1395       H  0.58268243  0.97172994  0.88656528     0.18600
N1396       N  0.61176911  0.95360435  0.82190508    -0.88100
H1397       H  0.46646874  0.85266997  0.87240042     0.35900
H1398       H  0.46598963  0.88587765  0.87629879     0.41000
H1399       H  0.62521970  0.94454578  0.83547854     0.40700
H1400       H  0.62363361  0.97718107  0.83646388     0.35600
C1401       C  0.65205905  0.88517826  0.72526271    -0.26200
C1402       C  0.61838040  0.87125164  0.71197091    -0.14200
C1403       C  0.60460552  0.85039981  0.66970376     0.36400
C1404       C  0.62475439  0.84319100  0.64240523    -0.25600
C1405       C  0.65782543  0.85534316  0.65800641    -0.14900
C1406       C  0.67154561  0.87681953  0.70006927     0.37500
N1407       N  0.70373665  0.88785530  0.72154141    -0.89100
H1408       H  0.66237722  0.90026302  0.75883560     0.18600
H1409       H  0.61400463  0.82635940  0.61079237     0.18600
N1410       N  0.56981693  0.83498676  0.65662724    -0.88100
H1411       H  0.72249780  0.90351003  0.69812876     0.35900
H1412       H  0.70523333  0.86811966  0.72716318     0.41000
H1413       H  0.55601488  0.81942497  0.68454663     0.40700
H1414       H  0.56372340  0.82064655  0.62422793     0.35600
C1415       C  0.57997819  0.60802548  0.71403550    -0.26200
C1416       C  0.61198860  0.63668100  0.71598872    -0.14200
C1417       C  0.63628748  0.63941060  0.68383773     0.36400
C1418       C  0.62799412  0.61418910  0.64962521    -0.25600
C1419       C  0.59602451  0.58541280  0.64765766    -0.14900
C1420       C  0.57186287  0.58236663  0.68096839     0.37500
N1421       N  0.53869058  0.55399970  0.68144238    -0.89100
H1422       H  0.56110947  0.60552528  0.73877314     0.18600
H1423       H  0.64706469  0.61694158  0.62505278     0.18600
N1424       N  0.66994658  0.66692058  0.68756871    -0.88100
H1425       H  0.03932572  0.53259384  0.69008595     0.35900
H1426       H  0.02765575  0.54739192  0.64449286     0.41000
H1427       H  0.67632397  0.67719550  0.65309794     0.40700
H1428       H  0.68559977  0.65916471  0.69569645     0.35600
C1429       C  0.57105402  0.61486048  0.85498553    -0.26200
C1430       C  0.60045674  0.62727565  0.82842694    -0.14200
C1431       C  0.62101449  0.61567903  0.83633466     0.36400
C1432       C  0.61221772  0.59267359  0.87147311    -0.25600
C1433       C  0.58383812  0.58173702  0.89970373    -0.14900
C1434       C  0.56263727  0.59230071  0.89064090     0.37500
N1435       N  0.02400951  0.57182662  0.90417144    -0.89100
H1436       H  0.55546967  0.62401876  0.84972395     0.18600
H1437       H  0.62839988  0.58435636  0.87832822     0.18600
N1438       N  0.65198867  0.62830171  0.81188706    -0.88100
H1439       H  0.02202026  0.58928758  0.92291070     0.35900
H1440       H  0.02017126  0.55523493  0.93003977     0.41000
H1441       H  0.66675010  0.65326353  0.81780886     0.40700
H1442       H  0.64692101  0.62276284  0.77415359     0.35600
C1443       C  0.62575738  0.71174039  0.66880782    -0.26200
C1444       C  0.64763351  0.71162806  0.70306546    -0.14200
C1445       C  0.68212839  0.73602402  0.70250162     0.36400
C1446       C  0.69328224  0.76153135  0.67149135    -0.25600
C1447       C  0.67089479  0.76417437  0.64195051    -0.14900
C1448       C  0.63709893  0.73781610  0.63797361     0.37500
N1449       N  0.61412188  0.73856587  0.60488789    -0.89100
H1450       H  0.59931082  0.69303796  0.66936961     0.18600
H1451       H  0.71929354  0.78093967  0.67473863     0.18600
N1452       N  0.70625916  0.73686110  0.73534243    -0.88100
H1453       H  0.59019613  0.71760196  0.60685566     0.35900
H1454       H  0.62205566  0.73879858  0.56897551     0.41000
H1455       H  0.69556365  0.71639999  0.75610406     0.40700
H1456       H  0.71521645  0.75656439  0.76022808     0.35600
loop_ 
_geom_bond_atom_site_label_1 
_geom_bond_atom_site_label_2 
_geom_bond_distance 
_geom_bond_site_symmetry_2 
_ccdc_geom_bond_type 
N1            C5   1.359       .  A
N1            C2   1.361       .  A
N1          C324   1.448       .  S
C2            C3   1.382       .  A
C2          C352   1.475       .  S
C3            C4   1.367       .  A
C3            H6   1.082       .  S
C4            C5   1.379       .  A
C4            H7   1.082       .  S
C5          C338   1.473       .  S
N8           C12   1.353       .  A
N8            C9   1.356       .  A
N8          C282   1.441       .  S
C9           C10   1.384       .  A
C9          C310   1.471       .  S
C10          C11   1.368       .  A
C10          H13   1.082       .  S
C11          C12   1.378       .  A
C11          H14   1.082       .  S
C12         C296   1.465       .  S
C15          C16   1.398       .  A
C15          C20   1.402       .  A
C15         C313   1.485       .  S
C16          C17   1.407       .  A
C16          H21   1.081       .  S
C17          C18   1.410       .  A
C17         C268   1.502       .  S
C18          C19   1.410       .  A
C18          H22   1.082       .  S
C19          C20   1.407       .  A
C19         C355   1.494       .  S
C20          H23   1.084       .  S
N24          C28   1.355       .  A
N24          C25   1.352       .  A
N24         C243   1.440       .  S
C25          C26   1.382       .  A
C25         C271   1.476       .  S
C26          C27   1.376       .  A
C26          H29   1.082       .  S
C27          C28   1.382       .  A
C27          H30   1.082       .  S
C28         C254   1.478       .  S
O31         Ni37   1.942   1_556  S
O31          C52   1.275       .  A
O32         Ni55   1.905       .  S
O32          C41   1.266       .  A
O33         Ni37   1.909       .  S
O33        Ni419   1.894   1_545  S
O33        Ni413   1.893   1_544  S
O33          H56   0.967       .  S
C34         C257   1.489       .  S
C34          O51   1.266       .  A
C34          O43   1.279       .  A
O35         Ni54   1.944       .  S
O35          C41   1.275   1_655  A
O36         Ni54   1.898   1_556  S
O36          C38   1.268   1_655  A
Ni37         O40   1.934       .  S
Ni37         O42   1.921       .  S
C38         C299   1.482       .  S
C38          O48   1.273       .  A
O39        Ni419   1.914       .  S
O39          C45   1.279   1_565  A
O40          C45   1.279       .  A
C41         C201   1.477       .  S
O42          C44   1.271       .  A
O43        Ni782   1.939   1_556  S
C44         C212   1.499       .  S
C44          O50   1.272       .  A
C45         C226   1.494       .  S
H46          O47   0.965   1_655  S
O47         Ni55   1.924       .  S
O47         Ni49   1.911   1_554  S
O47         Ni54   1.922   1_455  S
O48         Ni49   1.925       .  S
Ni49        O417   1.887       .  S
Ni49        O779   1.891   1_455  S
Ni49        O397   1.895   1_556  S
O50        Ni419   1.932   1_545  S
O51        Ni777   1.894       .  S
C52         C341   1.462       .  S
C52          O53   1.261       .  A
O53        Ni413   1.887   1_545  S
Ni54        O771   1.942   1_554  S
Ni55        O403   1.913       .  S
Ni55        O414   1.935       .  S
Ni55        O397   1.900       .  S
O57         Ni63   1.950   1_455  S
O57          C78   1.274       .  A
O58        Ni445   1.911   1_545  S
O58          C67   1.271       .  A
O59         Ni63   1.925   1_455  S
O59         Ni81   1.911       .  S
O59         Ni75   1.899       .  S
O59          H82   0.969       .  S
C60         C170   1.486       .  S
C60          O77   1.265   1_545  A
C60          O69   1.275       .  A
O61         Ni80   1.935       .  S
O61          C67   1.275       .  A
O62         Ni80   1.906       .  S
O62          C64   1.271       .  A
Ni63         O68   1.905   1_655  S
Ni63        O794   1.931       .  S
C64         C187   1.488       .  S
C64          O74   1.270       .  A
O65        Ni809   1.910       .  S
O65          C71   1.272       .  A
O66        Ni791   1.934       .  S
O66          C71   1.275       .  A
C67         C327   1.493       .  S
O68          C70   1.272       .  A
O69         Ni80   1.945       .  S
C70         C285   1.495       .  S
C70          O76   1.279       .  A
C71         C240   1.478       .  S
H72          O73   0.965       .  S
O73         Ni80   1.926       .  S
O73        Ni445   1.919   1_545  S
O73        Ni439   1.904   1_545  S
O74        Ni439   1.931   1_545  S
Ni75         O79   1.877       .  S
Ni75        O438   1.928       .  S
Ni75        O441   1.891       .  S
Ni75        O437   1.905       .  S
O76         Ni81   1.950       .  S
O77        Ni439   1.894       .  S
C78         C156   1.485       .  S
C78          O79   1.257       .  A
Ni81        O422   1.912       .  S
Ni81        O793   1.911       .  S
Ni81        O437   1.918       .  S
N83          C87   1.355       .  A
N83          C84   1.356       .  A
N83         C229   1.441       .  S
C84          C85   1.384       .  A
C84         C145   1.480       .  S
C85          C86   1.376       .  A
C85          H88   1.082       .  S
C86          C87   1.381       .  A
C86          H89   1.082       .  S
C87         C173   1.482       .  S
N90          C94   1.359       .  A
N90         C819   1.359       .  A
N90         C215   1.443   1_655  S
C91         N818   1.359       .  A
C91          C92   1.383       .  A
C91         C128   1.477       .  S
C92         C821   1.367       .  A
C92          H95   1.082       .  S
C93          C94   1.379       .  A
C93         C820   1.366       .  A
C93          H96   1.082       .  S
C94         C184   1.472   1_655  S
C97          C98   1.400       .  A
C97         C102   1.398       .  A
C97         C131   1.492       .  S
C98          C99   1.412       .  A
C98         H103   1.081       .  S
C99         C100   1.416       .  A
C99         C117   1.508       .  S
C100        C101   1.413       .  A
C100        H104   1.080       .  S
C101        C102   1.405       .  A
C101        C142   1.496       .  S
C102        H105   1.084       .  S
N106        C110   1.358   1_655  A
N106        C107   1.355       .  A
N106        C198   1.444       .  S
C107        C108   1.383   1_655  A
C107        C842   1.475       .  S
C108        C109   1.372       .  A
C108        H111   1.083       .  S
C109        C110   1.380       .  A
C109        H112   1.082       .  S
C110        C159   1.474       .  S
C113        C114   1.398       .  A
C113        C118   1.403       .  A
C113        H120   1.084       .  S
C114        C843   1.410       .  A
C114        C835   1.477       .  S
C115        C842   1.410       .  A
C115        C844   1.403       .  A
C115        N122   1.437   1_655  S
C116        C117   1.413       .  A
C116        C843   1.404       .  A
C116        H849   1.083       .  S
C117        C118   1.418       .  A
C118        N119   1.429       .  S
N119        H123   1.046       .  S
N119        H124   1.046       .  S
H121        C844   1.084       .  S
N122        H125   1.044       .  S
N122        H126   1.045       .  S
C127        C128   1.401       .  A
C127        C132   1.397       .  A
C127        H134   1.085       .  S
C128        C129   1.405       .  A
C129        C130   1.409       .  A
C129        N136   1.431       .  S
C130        C131   1.410       .  A
C130        H135   1.084       .  S
C131        C132   1.413       .  A
C132        N133   1.433       .  S
N133        H137   1.045       .  S
N133        H138   1.046       .  S
N136        H139   1.046       .  S
N136        H140   1.045       .  S
C141        C142   1.409       .  A
C141        C146   1.410       .  A
C141        H148   1.084       .  S
C142        C143   1.419       .  A
C143        C144   1.399       .  A
C143        N150   1.430       .  S
C144        C145   1.400       .  A
C144        H149   1.084       .  S
C145        C146   1.407       .  A
C146        N147   1.437       .  S
N147        H151   1.046       .  S
N147        H152   1.046       .  S
N150        H153   1.043       .  S
N150        H154   1.045       .  S
C155        C156   1.412       .  A
C155        C160   1.397       .  A
C155        H162   1.084       .  S
C156        C157   1.415   1_455  A
C157        C158   1.400       .  A
C157        N892   1.432       .  S
C158        C159   1.405   1_655  A
C158        H891   1.084       .  S
C159        C160   1.405       .  A
C160        N161   1.432       .  S
N161        H165   1.044       .  S
N161        H166   1.045       .  S
H163        C886   1.084       .  S
N164        C885   1.432       .  S
N164        H167   1.046       .  S
N164        H168   1.045       .  S
C169        C170   1.407   1_565  A
C169        C174   1.403       .  A
C169        H176   1.084       .  S
C170        C171   1.413       .  A
C171        C172   1.404       .  A
C171        N178   1.433       .  S
C172        C173   1.402       .  A
C172        H177   1.083       .  S
C173        C174   1.407   1_545  A
C174        N175   1.432       .  S
N175        H179   1.046       .  S
N175        H180   1.045       .  S
N178        H181   1.046       .  S
N178        H182   1.046       .  S
C183        C912   1.398       .  A
C183        C916   1.406       .  A
C183        H190   1.083       .  S
C184        C185   1.410       .  A
C184        C911   1.398       .  A
C185        C186   1.402       .  A
C185        N192   1.438       .  S
C186        C187   1.404       .  A
C186        H191   1.083       .  S
C187        C188   1.418       .  A
C188        C911   1.404       .  A
C188       N1281   1.433   1_545  S
N189       C1280   1.433       .  S
N189        H193   1.046       .  S
N189        H194   1.046       .  S
N192        H195   1.044       .  S
N192        H196   1.046       .  S
C197        C198   1.404   1_455  A
C197        C202   1.396       .  A
C197        H204   1.083       .  S
C198        C199   1.417       .  A
C199        C200   1.411       .  A
C199        N934   1.437       .  S
C200        C201   1.404   1_655  A
C200        H933   1.084       .  S
C201        C202   1.409       .  A
C202        N203   1.433       .  S
N203        H207   1.045       .  S
N203        H208   1.045       .  S
H205        C928   1.084       .  S
N206        C927   1.437       .  S
N206        H209   1.043       .  S
N206        H210   1.046       .  S
C211        C212   1.410       .  A
C211        C216   1.405       .  A
C211        H218   1.083       .  S
C212        C213   1.420   1_455  A
C213        C214   1.408       .  A
C213        N220   1.438   1_545  S
C214        C215   1.400   1_655  A
C214        H219   1.083       .  S
C215        C216   1.410       .  A
C216        N945   1.431       .  S
N217        C944   1.430       .  S
N217        H221   1.044       .  S
N217        H222   1.044       .  S
N220        H223   1.046       .  S
N220        H224   1.046       .  S
C225        C226   1.405   1_565  A
C225        C230   1.396       .  A
C225        H232   1.083       .  S
C226        C227   1.421       .  A
C227        C228   1.407       .  A
C227        N234   1.432       .  S
C228        C229   1.398       .  A
C228        H233   1.082       .  S
C229        C230   1.414   1_545  A
C230        N231   1.432       .  S
N231        H235   1.043       .  S
N231        H236   1.045       .  S
N234        H237   1.046       .  S
N234        H238   1.046       .  S
C239        C240   1.406       .  A
C239        C244   1.406       .  A
C239        H246   1.084       .  S
C240        C241   1.412       .  A
C241        C242   1.395       .  A
C241        N248   1.433       .  S
C242        C243   1.403       .  A
C242        H247   1.084       .  S
C243        C244   1.415       .  A
C244        N245   1.436       .  S
N245        H249   1.046       .  S
N245        H250   1.042       .  S
N248        H251   1.046       .  S
N248        H252   1.044       .  S
C253        C254   1.398       .  A
C253        C258   1.408       .  A
C253        H260   1.084       .  S
C254        C255   1.415       .  A
C255        C256   1.395       .  A
C255        N262   1.433       .  S
C256        C257   1.402       .  A
C256        H261   1.084       .  S
C257        C258   1.424       .  A
C258        N259   1.439       .  S
N259        H263   1.046       .  S
N259        H264   1.046       .  S
N262        H265   1.045       .  S
N262        H266   1.043       .  S
C267        C268   1.412       .  A
C267        C272   1.405       .  A
C267        H274   1.083       .  S
C268        C269   1.419       .  A
C269        C270   1.398       .  A
C269        N276   1.430       .  S
C270        C271   1.397       .  A
C270        H275   1.084       .  S
C271        C272   1.411       .  A
C272        N273   1.438       .  S
N273        H277   1.045       .  S
N273        H278   1.044       .  S
N276        H279   1.046       .  S
N276        H280   1.046       .  S
C281        C282   1.403       .  A
C281        C286   1.408       .  A
C281        H288   1.083       .  S
C282        C283   1.414       .  A
C283        C284   1.400       .  A
C283        N290   1.439       .  S
C284        C285   1.407       .  A
C284        H289   1.084       .  S
C285        C286   1.420       .  A
C286        N287   1.431       .  S
N287        H291   1.045       .  S
N287        H292   1.045       .  S
N290        H293   1.043       .  S
N290       H1022   1.046       .  S
H294       N1018   1.046       .  S
C295        C296   1.395       .  A
C295        C300   1.400       .  A
C295        H302   1.084       .  S
C296        C297   1.407       .  A
C297        C298   1.404       .  A
C297        N304   1.438       .  S
C298        C299   1.406       .  A
C298        H303   1.083       .  S
C299        C300   1.418       .  A
C300        N301   1.438   1_455  S
N301        H305   1.046       .  S
N301        H306   1.046       .  S
N304        H307   1.045       .  S
N304        H308   1.046       .  S
C309        C310   1.399       .  A
C309        C314   1.391       .  A
C309        H316   1.085       .  S
C310        C311   1.407       .  A
C311        C312   1.410       .  A
C311        N318   1.436       .  S
C312        C313   1.407       .  A
C312        H317   1.084       .  S
C313        C314   1.419       .  A
C314        N315   1.434       .  S
N315        H319   1.043       .  S
N315        H320   1.046       .  S
N318        H321   1.046       .  S
N318        H322   1.045       .  S
C323        C324   1.405       .  A
C323        C328   1.401       .  A
C323        H330   1.083       .  S
C324        C325   1.408       .  A
C325        C326   1.407       .  A
C325        N332   1.430       .  S
C326        C327   1.409       .  A
C326        H331   1.084       .  S
C327        C328   1.418       .  A
C328        N329   1.432       .  S
N329       H1061   1.045       .  S
N329       H1062   1.044       .  S
N332        H335   1.046       .  S
N332        H336   1.046       .  S
H333       N1057   1.045       .  S
H334       N1057   1.044       .  S
C337        C338   1.401       .  A
C337        C342   1.398       .  A
C337        H344   1.084       .  S
C338        C339   1.413       .  A
C339        C340   1.398       .  A
C339        N346   1.432       .  S
C340        C341   1.401       .  A
C340        H345   1.084       .  S
C341        C342   1.413       .  A
C342       N1071   1.439       .  S
N343       C1070   1.439       .  S
N343        H347   1.046       .  S
N343        H348   1.043       .  S
N346        H349   1.045       .  S
N346        H350   1.043       .  S
C351        C352   1.403       .  A
C351        C356   1.412       .  A
C351        H358   1.084       .  S
C352        C353   1.414       .  A
C353        C354   1.395       .  A
C353        N360   1.440       .  S
C354        C355   1.404       .  A
C354        H359   1.080       .  S
C355        C356   1.415       .  A
C356        N357   1.437       .  S
N357        H361   1.046       .  S
N357        H362   1.045       .  S
N360        H363   1.044       .  S
N360        H364   1.046       .  S
N365        C369   1.359       .  A
N365        C366   1.360       .  A
N365        C688   1.448       .  S
C366        C367   1.383       .  A
C366        C716   1.475       .  S
C367        C368   1.368       .  A
C367        H370   1.082       .  S
C368        C369   1.378       .  A
C368        H371   1.082       .  S
C369        C702   1.472       .  S
N372        C376   1.355       .  A
N372        C373   1.359       .  A
N372        C646   1.443       .  S
C373        C374   1.384       .  A
C373        C674   1.476       .  S
C374        C375   1.368       .  A
C374        H377   1.082       .  S
C375        C376   1.378       .  A
C375        H378   1.082       .  S
C376        C660   1.467       .  S
C379        C380   1.399       .  A
C379        C384   1.404       .  A
C379        C677   1.489       .  S
C380        C381   1.407       .  A
C380        H385   1.081       .  S
C381        C382   1.409       .  A
C381        C632   1.501       .  S
C382        C383   1.409       .  A
C382        H386   1.082       .  S
C383        C384   1.408       .  A
C383        C719   1.493       .  S
C384        H387   1.084       .  S
N388        C392   1.354       .  A
N388        C389   1.352       .  A
N388        C607   1.438       .  S
C389        C390   1.383       .  A
C389        C635   1.476       .  S
C390        C391   1.376       .  A
C390        H393   1.082       .  S
C391        C392   1.382       .  A
C391        H394   1.082       .  S
C392        C618   1.479       .  S
O395       Ni401   1.941   1_556  S
O395        C416   1.274       .  A
O396       Ni419   1.905       .  S
O396        C405   1.267       .  A
O397       Ni401   1.917       .  S
O397        H420   0.965   1_554  S
C398        C621   1.488       .  S
C398        O415   1.265       .  A
C398        O407   1.279       .  A
O399       Ni418   1.940       .  S
O399        C405   1.274   1_655  A
O400       Ni418   1.904   1_556  S
O400        C402   1.269   1_655  A
Ni401       O404   1.934       .  S
Ni401       O406   1.917       .  S
C402        C663   1.487       .  S
C402        O412   1.273       .  A
O403        C409   1.277       .  A
O404        C409   1.277       .  A
C405        C565   1.473       .  S
O406        C408   1.271       .  A
O407      Ni1146   1.943   1_556  S
C408        C576   1.498       .  S
C408        O414   1.273       .  A
C409        C590   1.496       .  S
H410        O411   0.965   1_655  S
O411       Ni419   1.919       .  S
O411       Ni413   1.905   1_554  S
O411       Ni418   1.912   1_455  S
O412       Ni413   1.923       .  S
Ni413      O1143   1.900   1_455  S
O415      Ni1141   1.889   1_565  S
C416        C705   1.463       .  S
C416        O417   1.260       .  A
Ni418      O1135   1.932   1_554  S
O421       Ni427   1.951   1_455  S
O421        C442   1.274       .  A
O422        C431   1.271       .  A
O423       Ni427   1.926   1_455  S
O423       Ni445   1.912       .  S
O423       Ni439   1.903       .  S
O423        H446   0.965       .  S
C424        C534   1.483       .  S
C424        O441   1.265       .  A
C424        O433   1.275       .  A
O425       Ni444   1.934       .  S
O425        C431   1.274       .  A
O426       Ni444   1.905       .  S
O426        C428   1.270       .  A
Ni427      O1158   1.935       .  S
Ni427       O432   1.906   1_655  S
C428        C551   1.481       .  S
C428        O438   1.270       .  A
O429      Ni1173   1.909       .  S
O429        C435   1.272       .  A
O430      Ni1155   1.931       .  S
O430        C435   1.275       .  A
C431        C691   1.492       .  S
O432        C434   1.272       .  A
O433       Ni444   1.943       .  S
C434        C649   1.498       .  S
C434        O440   1.280       .  A
C435        C604   1.476       .  S
H436        O437   0.962       .  S
O437       Ni444   1.926       .  S
Ni439       O443   1.876       .  S
O440       Ni445   1.954       .  S
C442        C520   1.488       .  S
C442        O443   1.257       .  A
Ni445      O1157   1.912       .  S
N447        C451   1.355       .  A
N447        C448   1.356       .  A
N447        C593   1.442       .  S
C448        C449   1.383       .  A
C448        C509   1.478       .  S
C449        C450   1.375       .  A
C449        H452   1.082       .  S
C450        C451   1.381       .  A
C450        H453   1.082       .  S
C451        C537   1.482       .  S
N454        C458   1.358   1_655  A
N454       C1183   1.359       .  A
N454        C579   1.443   1_655  S
C455       N1182   1.359       .  A
C455        C456   1.384       .  A
C455        C492   1.476       .  S
C456       C1185   1.366       .  A
C456        H459   1.082       .  S
C457       C1184   1.366       .  A
C457        C458   1.378   1_655  A
C457        H460   1.082       .  S
C458        C548   1.470       .  S
C461        C462   1.400       .  A
C461        C466   1.398       .  A
C461        C495   1.492       .  S
C462        C463   1.412       .  A
C462        H467   1.081       .  S
C463        C464   1.415       .  A
C463        C481   1.506       .  S
C464        C465   1.412       .  A
C464        H468   1.080       .  S
C465        C466   1.405       .  A
C465        C506   1.494       .  S
C466        H469   1.084       .  S
N470        C474   1.356   1_655  A
N470        C471   1.353       .  A
N470        C562   1.439       .  S
C471        C472   1.383   1_655  A
C471       C1206   1.475       .  S
C472        C473   1.374       .  A
C472        H475   1.083       .  S
C473        C474   1.380       .  A
C473        H476   1.082       .  S
C474        C523   1.474       .  S
C477        C478   1.398       .  A
C477        C482   1.403       .  A
C477        H484   1.084       .  S
C478       C1207   1.410       .  A
C478       C1199   1.475       .  S
C479       C1206   1.410       .  A
C479       C1208   1.403       .  A
C479        N486   1.437   1_655  S
C480       C1207   1.403       .  A
C480        C481   1.412       .  A
C480       H1213   1.083       .  S
C481        C482   1.418       .  A
C482        N483   1.429       .  S
N483        H487   1.046       .  S
N483        H488   1.046       .  S
H485       C1208   1.083       .  S
N486        H489   1.044       .  S
N486        H490   1.046       .  S
C491        C492   1.401       .  A
C491        C496   1.396       .  A
C491        H498   1.085       .  S
C492        C493   1.405       .  A
C493        C494   1.409       .  A
C493        N500   1.431       .  S
C494        C495   1.411       .  A
C494        H499   1.084       .  S
C495        C496   1.413       .  A
C496        N497   1.433       .  S
N497        H501   1.045       .  S
N497        H502   1.046       .  S
N500        H503   1.046       .  S
N500        H504   1.045       .  S
C505        C506   1.409       .  A
C505        C510   1.408       .  A
C505        H512   1.084       .  S
C506        C507   1.419       .  A
C507        C508   1.399       .  A
C507        N514   1.430       .  S
C508        C509   1.400       .  A
C508        H513   1.084       .  S
C509        C510   1.407       .  A
C510        N511   1.437       .  S
N511        H515   1.046       .  S
N511        H516   1.045       .  S
N514        H517   1.043       .  S
N514        H518   1.045       .  S
C519        C520   1.413       .  A
C519        C524   1.397       .  A
C519        H526   1.084       .  S
C520        C521   1.416   1_455  A
C521        C522   1.400       .  A
C521       N1256   1.432       .  S
C522        C523   1.404   1_655  A
C522       H1255   1.084       .  S
C523        C524   1.405       .  A
C524        N525   1.432       .  S
N525        H529   1.044       .  S
N525        H530   1.045       .  S
H527       C1250   1.084       .  S
N528       C1249   1.432       .  S
N528        H531   1.045       .  S
N528        H532   1.045       .  S
C533        C534   1.406       .  A
C533        C538   1.402       .  A
C533        H540   1.084       .  S
C534        C535   1.412       .  A
C535        C536   1.403       .  A
C535        N542   1.433       .  S
C536        C537   1.403       .  A
C536        H541   1.083       .  S
C537        C538   1.408       .  A
C538        N539   1.432       .  S
N539        H543   1.046       .  S
N539        H544   1.046       .  S
N542        H545   1.046       .  S
N542        H546   1.045       .  S
C547       C1276   1.398       .  A
C547       C1280   1.405       .  A
C547        H554   1.083       .  S
C548       C1275   1.399       .  A
C548        C549   1.409       .  A
C549        C550   1.402       .  A
C549        N556   1.437       .  S
C550        C551   1.403       .  A
C550        H555   1.084       .  S
C551        C552   1.414       .  A
C552       C1275   1.403       .  A
C552        N917   1.432   1_455  S
N553        C916   1.433   1_565  S
N553        H557   1.046       .  S
N553        H558   1.046       .  S
N556        H559   1.044       .  S
N556        H560   1.046       .  S
C561        C562   1.403   1_455  A
C561        C566   1.395       .  A
C561        H568   1.083       .  S
C562        C563   1.415       .  A
C563        C564   1.409       .  A
C563       N1298   1.437       .  S
C564        C565   1.404   1_655  A
C564       H1297   1.084       .  S
C565        C566   1.408       .  A
C566        N567   1.433       .  S
N567        H571   1.045       .  S
N567        H572   1.046       .  S
H569       C1292   1.084       .  S
N570       C1291   1.437       .  S
N570        H573   1.043       .  S
N570        H574   1.046       .  S
C575        C576   1.409       .  A
C575        C580   1.403       .  A
C575        H582   1.083       .  S
C576        C577   1.419       .  A
C577        C578   1.410   1_455  A
C577        N584   1.438   1_455  S
C578        C579   1.401   1_655  A
C578        H583   1.083       .  S
C579        C580   1.410       .  A
C580       N1309   1.431       .  S
N581       C1308   1.430       .  S
N581        H585   1.044       .  S
N581        H586   1.043       .  S
N584        H587   1.046       .  S
N584        H588   1.046       .  S
C589        C590   1.406       .  A
C589        C594   1.396       .  A
C589        H596   1.083       .  S
C590        C591   1.421       .  A
C591        C592   1.408       .  A
C591        N598   1.432       .  S
C592        C593   1.399       .  A
C592        H597   1.082       .  S
C593        C594   1.414       .  A
C594        N595   1.432       .  S
N595        H599   1.043       .  S
N595        H600   1.045       .  S
N598        H601   1.046       .  S
N598        H602   1.046       .  S
C603        C604   1.405       .  A
C603        C608   1.405       .  A
C603        H610   1.084       .  S
C604        C605   1.412       .  A
C605        C606   1.395       .  A
C605        N612   1.433   1_565  S
C606        C607   1.403       .  A
C606        H611   1.084       .  S
C607        C608   1.414       .  A
C608        N609   1.436       .  S
N609        H613   1.046       .  S
N609        H614   1.042       .  S
N612        H615   1.046   1_545  S
N612        H616   1.043       .  S
C617        C618   1.397       .  A
C617        C622   1.407       .  A
C617        H624   1.084   1_565  S
C618        C619   1.416       .  A
C619        C620   1.397       .  A
C619        N626   1.433       .  S
C620        C621   1.401       .  A
C620        H625   1.084       .  S
C621        C622   1.424       .  A
C622        N623   1.439   1_565  S
N623        H627   1.046       .  S
N623        H628   1.046   1_545  S
N626        H629   1.045       .  S
N626        H630   1.044       .  S
C631        C632   1.412       .  A
C631        C636   1.410       .  A
C631        H638   1.083       .  S
C632        C633   1.419       .  A
C633        C634   1.397       .  A
C633        N640   1.431       .  S
C634        C635   1.397       .  A
C634        H639   1.083       .  S
C635        C636   1.406       .  A
C636        N637   1.437       .  S
N637        H641   1.045       .  S
N637        H642   1.046       .  S
N640        H643   1.046       .  S
N640        H644   1.046       .  S
C645        C646   1.403       .  A
C645        C650   1.409       .  A
C645        H652   1.083       .  S
C646        C647   1.415       .  A
C647        C648   1.401       .  A
C647        N654   1.438       .  S
C648        C649   1.407       .  A
C648        H653   1.084       .  S
C649        C650   1.420       .  A
C650        N651   1.431       .  S
N651        H655   1.045       .  S
N651        H656   1.045       .  S
N654        H657   1.043       .  S
N654       H1386   1.046       .  S
H658       N1382   1.046       .  S
C659        C660   1.396       .  A
C659        C664   1.404       .  A
C659        H666   1.084       .  S
C660        C661   1.403       .  A
C661        C662   1.401       .  A
C661        N668   1.432       .  S
C662        C663   1.407       .  A
C662        H667   1.083       .  S
C663        C664   1.421       .  A
C664        N665   1.438   1_455  S
N665        H669   1.046       .  S
N665        H670   1.046       .  S
N668        H671   1.045       .  S
N668        H672   1.046       .  S
C673        C674   1.401       .  A
C673        C678   1.393       .  A
C673        H680   1.085       .  S
C674        C675   1.408       .  A
C675        C676   1.412       .  A
C675        N682   1.436       .  S
C676        C677   1.408       .  A
C676        H681   1.084       .  S
C677        C678   1.419       .  A
C678        N679   1.435       .  S
N679        H683   1.042       .  S
N679        H684   1.046       .  S
N682        H685   1.045       .  S
N682        H686   1.045       .  S
C687        C688   1.405       .  A
C687        C692   1.400       .  A
C687        H694   1.083       .  S
C688        C689   1.408       .  A
C689        C690   1.407       .  A
C689        N696   1.430       .  S
C690        C691   1.409       .  A
C690        H695   1.084       .  S
C691        C692   1.417       .  A
C692        N693   1.432       .  S
N693       H1425   1.045       .  S
N693       H1426   1.045       .  S
N696        H699   1.046       .  S
N696        H700   1.045       .  S
H697       N1421   1.045       .  S
H698       N1421   1.045       .  S
C701        C702   1.401       .  A
C701        C706   1.399       .  A
C701        H708   1.084       .  S
C702        C703   1.411       .  A
C703        C704   1.397       .  A
C703        N710   1.432       .  S
C704        C705   1.401       .  A
C704        H709   1.084       .  S
C705        C706   1.415       .  A
C706       N1435   1.439       .  S
N707       C1434   1.433       .  S
N707        H711   1.045       .  S
N707        H712   1.045       .  S
N710        H713   1.045       .  S
N710        H714   1.044       .  S
C715        C716   1.403       .  A
C715        C720   1.412       .  A
C715        H722   1.084       .  S
C716        C717   1.414       .  A
C717        C718   1.395       .  A
C717        N724   1.439       .  S
C718        C719   1.404       .  A
C718        H723   1.080       .  S
C719        C720   1.414       .  A
C720        N721   1.436       .  S
N721        H725   1.046       .  S
N721        H726   1.046       .  S
N724        H727   1.044       .  S
N724        H728   1.046       .  S
N729        C733   1.360       .  A
N729        C730   1.361       .  A
N729       C1052   1.448       .  S
C730        C731   1.382       .  A
C730       C1080   1.477       .  S
C731        C732   1.368       .  A
C731        H734   1.082       .  S
C732        C733   1.379       .  A
C732        H735   1.082       .  S
C733       C1066   1.476       .  S
N736        C740   1.356       .  A
N736        C737   1.358       .  A
N736       C1010   1.443       .  S
C737        C738   1.383       .  A
C737       C1038   1.475       .  S
C738        C739   1.368       .  A
C738        H741   1.082       .  S
C739        C740   1.378       .  A
C739        H742   1.082       .  S
C740       C1024   1.470       .  S
C743        C744   1.398       .  A
C743        C748   1.403       .  A
C743       C1041   1.489       .  S
C744        C745   1.408       .  A
C744        H749   1.079       .  S
C745        C746   1.412       .  A
C745        C996   1.508       .  S
C746        C747   1.411       .  A
C746        H750   1.081       .  S
C747        C748   1.408       .  A
C747       C1083   1.497       .  S
C748        H751   1.084       .  S
N752        C756   1.355       .  A
N752        C753   1.354       .  A
N752        C971   1.440       .  S
C753        C754   1.382       .  A
C753        C999   1.479       .  S
C754        C755   1.376       .  A
C754        H757   1.082       .  S
C755        C756   1.382       .  A
C755        H758   1.082       .  S
C756        C982   1.481       .  S
O759       Ni765   1.943   1_556  S
O759        C780   1.274       .  A
O760       Ni783   1.905       .  S
O760        C769   1.266       .  A
O761       Ni765   1.916       .  S
O761      Ni1147   1.899   1_545  S
O761      Ni1141   1.893   1_554  S
O761        H784   0.965       .  S
C762        C985   1.488       .  S
C762        O779   1.265       .  A
C762        O771   1.278       .  A
O763       Ni782   1.943       .  S
O763        C769   1.275       .  A
O764       Ni782   1.906   1_556  S
O764        C766   1.269       .  A
Ni765       O768   1.933       .  S
Ni765       O770   1.918       .  S
C766       C1027   1.490       .  S
C766        O776   1.273       .  A
O767      Ni1147   1.915       .  S
O767        C773   1.278   1_565  A
O768        C773   1.277       .  A
C769        C929   1.474       .  S
O770        C772   1.271       .  A
C772        C940   1.496       .  S
C772        O778   1.272       .  A
C773        C954   1.495       .  S
H774        O775   0.967       .  S
O775       Ni783   1.920       .  S
O775       Ni777   1.905   1_554  S
O775       Ni782   1.915       .  S
O776       Ni777   1.923       .  S
Ni777      O1145   1.885       .  S
Ni777      O1125   1.891   1_556  S
O778      Ni1147   1.930   1_545  S
C780       C1069   1.465       .  S
C780        O781   1.260       .  A
O781      Ni1141   1.888       .  S
Ni783      O1131   1.916       .  S
Ni783      O1142   1.930       .  S
Ni783      O1125   1.895       .  S
O785       Ni791   1.953       .  S
O785        C806   1.275       .  A
O786      Ni1173   1.909   1_545  S
O786        C795   1.270       .  A
O787       Ni791   1.925       .  S
O787       Ni809   1.910       .  S
O787       Ni803   1.899       .  S
O787        H810   0.966       .  S
C788        C898   1.482       .  S
C788        O805   1.264   1_545  A
C788        O797   1.275       .  A
O789       Ni808   1.936       .  S
O789        C795   1.275       .  A
O790       Ni808   1.907       .  S
O790        C792   1.271       .  A
Ni791       O796   1.908       .  S
C792        C915   1.492       .  S
C792        O802   1.270       .  A
O793        C799   1.272   1_455  A
O794        C799   1.274       .  A
C795       C1055   1.492       .  S
O796        C798   1.272       .  A
O797       Ni808   1.943       .  S
C798       C1013   1.498       .  S
C798        O804   1.279       .  A
C799        C968   1.476       .  S
H800        O801   0.965       .  S
O801      Ni1173   1.917   1_545  S
O801      Ni1167   1.906   1_545  S
O801       Ni808   1.925       .  S
O802      Ni1167   1.932   1_545  S
Ni803      O1166   1.928       .  S
Ni803       O807   1.877       .  S
Ni803      O1169   1.894       .  S
Ni803      O1165   1.906       .  S
O804       Ni809   1.951       .  S
O805      Ni1167   1.891       .  S
C806        C884   1.488       .  S
C806        O807   1.257       .  A
Ni809      O1150   1.911       .  S
Ni809      O1165   1.919       .  S
N811        C815   1.354       .  A
N811        C812   1.355       .  A
N811        C957   1.441       .  S
C812        C813   1.384       .  A
C812        C873   1.477       .  S
C813        C814   1.375       .  A
C813        H816   1.082       .  S
C814        C815   1.381       .  A
C814        H817   1.082       .  S
C815        C901   1.480       .  S
N818        C822   1.359       .  A
N818        C943   1.442       .  S
C819        C820   1.384       .  A
C819        C856   1.475       .  S
C820        H823   1.082       .  S
C821        C822   1.379       .  A
C821        H824   1.082       .  S
C822        C912   1.475       .  S
C825        C826   1.399       .  A
C825        C830   1.397       .  A
C825        C859   1.491       .  S
C826        C827   1.412       .  A
C826        H831   1.081       .  S
C827        C828   1.415       .  A
C827        C845   1.506       .  S
C828        C829   1.412       .  A
C828        H832   1.080       .  S
C829        C830   1.405       .  A
C829        C870   1.493       .  S
C830        H833   1.084       .  S
N834        C838   1.358       .  A
N834        C835   1.354       .  A
N834        C926   1.442       .  S
C835        C836   1.382       .  A
C836        C837   1.373       .  A
C836        H839   1.083       .  S
C837        C838   1.381       .  A
C837        H840   1.082       .  S
C838        C887   1.476       .  S
C841        C842   1.398       .  A
C841        C846   1.402       .  A
C841        H848   1.084       .  S
C843        N850   1.437       .  S
C844        C845   1.412       .  A
C845        C846   1.418       .  A
C846        N847   1.429       .  S
N847        H851   1.046       .  S
N847        H852   1.046       .  S
N850        H853   1.044       .  S
N850        H854   1.046       .  S
C855        C856   1.401       .  A
C855        C860   1.396       .  A
C855        H862   1.085       .  S
C856        C857   1.405       .  A
C857        C858   1.409       .  A
C857        N864   1.431       .  S
C858        C859   1.410       .  A
C858        H863   1.084       .  S
C859        C860   1.413       .  A
C860        N861   1.433       .  S
N861        H865   1.046       .  S
N861        H866   1.046       .  S
N864        H867   1.046       .  S
N864        H868   1.045       .  S
C869        C870   1.409       .  A
C869        C874   1.408       .  A
C869        H876   1.084       .  S
C870        C871   1.418       .  A
C871        C872   1.398       .  A
C871        N878   1.430       .  S
C872        C873   1.400       .  A
C872        H877   1.084       .  S
C873        C874   1.406       .  A
C874        N875   1.437       .  S
N875        H879   1.046       .  S
N875        H880   1.045       .  S
N878        H881   1.043       .  S
N878        H882   1.045       .  S
C883        C884   1.413       .  A
C883        C888   1.397       .  A
C883        H890   1.084       .  S
C884        C885   1.416       .  A
C885        C886   1.401       .  A
C886        C887   1.405       .  A
C887        C888   1.406       .  A
C888        N889   1.432       .  S
N889        H893   1.044       .  S
N889        H894   1.045       .  S
N892        H895   1.046       .  S
N892        H896   1.045       .  S
C897        C898   1.407   1_565  A
C897        C902   1.402       .  A
C897        H904   1.084       .  S
C898        C899   1.412       .  A
C899        C900   1.403       .  A
C899        N906   1.433       .  S
C900        C901   1.402       .  A
C900        H905   1.083       .  S
C901        C902   1.407   1_545  A
C902        N903   1.432       .  S
N903        H907   1.046       .  S
N903        H908   1.045       .  S
N906        H909   1.046       .  S
N906        H910   1.045       .  S
C911        H918   1.083   1_455  S
C912        C913   1.410       .  A
C913        C914   1.402       .  A
C913        N920   1.438       .  S
C914        C915   1.405       .  A
C914        H919   1.083       .  S
C915        C916   1.419       .  A
N917        H921   1.046       .  S
N917        H922   1.046       .  S
N920        H923   1.044       .  S
N920        H924   1.046       .  S
C925        C926   1.403       .  A
C925        C930   1.394       .  A
C925        H932   1.083       .  S
C926        C927   1.416       .  A
C927        C928   1.410       .  A
C928        C929   1.405       .  A
C929        C930   1.408       .  A
C930        N931   1.433       .  S
N931        H935   1.045       .  S
N931        H936   1.045       .  S
N934        H937   1.043       .  S
N934        H938   1.045       .  S
C939        C940   1.410       .  A
C939        C944   1.404       .  A
C939        H946   1.083       .  S
C940        C941   1.419       .  A
C941        C942   1.407       .  A
C941        N948   1.438   1_545  S
C942        C943   1.399       .  A
C942        H947   1.083       .  S
C943        C944   1.409       .  A
N945        H949   1.044       .  S
N945        H950   1.044       .  S
N948        H951   1.045       .  S
N948        H952   1.046       .  S
C953        C954   1.406   1_565  A
C953        C958   1.397       .  A
C953        H960   1.083       .  S
C954        C955   1.420       .  A
C955        C956   1.407       .  A
C955        N962   1.432       .  S
C956        C957   1.398       .  A
C956        H961   1.082       .  S
C957        C958   1.413   1_545  A
C958        N959   1.432       .  S
N959        H963   1.043       .  S
N959        H964   1.045       .  S
N962        H965   1.046       .  S
N962        H966   1.046       .  S
C967        C968   1.406       .  A
C967        C972   1.406       .  A
C967        H974   1.084       .  S
C968        C969   1.411       .  A
C969        C970   1.395       .  A
C969        N976   1.433       .  S
C970        C971   1.404       .  A
C970        H975   1.084       .  S
C971        C972   1.415       .  A
C972        N973   1.437       .  S
N973        H977   1.046       .  S
N973        H978   1.042       .  S
N976        H979   1.046       .  S
N976        H980   1.044       .  S
C981        C982   1.398       .  A
C981        C986   1.408       .  A
C981        H988   1.084       .  S
C982        C983   1.416       .  A
C983        C984   1.397       .  A
C983        N990   1.433       .  S
C984        C985   1.401       .  A
C984        H989   1.084       .  S
C985        C986   1.423       .  A
C986        N987   1.439       .  S
N987        H991   1.046   1_655  S
N987        H992   1.046   1_655  S
N990        H993   1.045       .  S
N990        H994   1.043       .  S
C995        C996   1.414       .  A
C995       C1000   1.406       .  A
C995       H1002   1.083       .  S
C996        C997   1.421       .  A
C997        C998   1.398       .  A
C997       N1004   1.430       .  S
C998        C999   1.396       .  A
C998       H1003   1.084       .  S
C999       C1000   1.411       .  A
C1000      N1001   1.438       .  S
N1001      H1005   1.045       .  S
N1001      H1006   1.044       .  S
N1004      H1007   1.046       .  S
N1004      H1008   1.046       .  S
C1009      C1010   1.403       .  A
C1009      C1014   1.409       .  A
C1009      H1016   1.083       .  S
C1010      C1011   1.414       .  A
C1011      C1012   1.401       .  A
C1011      N1018   1.438       .  S
C1012      C1013   1.407       .  A
C1012      H1017   1.084       .  S
C1013      C1014   1.420       .  A
C1014      N1015   1.431       .  S
N1015      H1019   1.045       .  S
N1015      H1020   1.045       .  S
N1018      H1021   1.043       .  S
C1023      C1024   1.397       .  A
C1023      C1028   1.403       .  A
C1023      H1030   1.084       .  S
C1024      C1025   1.406       .  A
C1025      C1026   1.405       .  A
C1025      N1032   1.438       .  S
C1026      C1027   1.408       .  A
C1026      H1031   1.083       .  S
C1027      C1028   1.420       .  A
C1028      N1029   1.438       .  S
N1029      H1033   1.046       .  S
N1029      H1034   1.046       .  S
N1032      H1035   1.045       .  S
N1032      H1036   1.046       .  S
C1037      C1038   1.400       .  A
C1037      C1042   1.393       .  A
C1037      H1044   1.085       .  S
C1038      C1039   1.409       .  A
C1039      C1040   1.411       .  A
C1039      N1046   1.436       .  S
C1040      C1041   1.407       .  A
C1040      H1045   1.084       .  S
C1041      C1042   1.420       .  A
C1042      N1043   1.435       .  S
N1043      H1047   1.042       .  S
N1043      H1048   1.046       .  S
N1046      H1049   1.045       .  S
N1046      H1050   1.045       .  S
C1051      C1052   1.405       .  A
C1051      C1056   1.402       .  A
C1051      H1058   1.083       .  S
C1052      C1053   1.408       .  A
C1053      C1054   1.405       .  A
C1053      N1060   1.429       .  S
C1054      C1055   1.407       .  A
C1054      H1059   1.084       .  S
C1055      C1056   1.418       .  A
C1056      N1057   1.432       .  S
N1060      H1063   1.045       .  S
N1060      H1064   1.046       .  S
C1065      C1066   1.403       .  A
C1065      C1070   1.400       .  A
C1065      H1072   1.084       .  S
C1066      C1067   1.413       .  A
C1067      C1068   1.398       .  A
C1067      N1074   1.432       .  S
C1068      C1069   1.400       .  A
C1068      H1073   1.084       .  S
C1069      C1070   1.414       .  A
N1071      H1075   1.045       .  S
N1071      H1076   1.043       .  S
N1074      H1077   1.045       .  S
N1074      H1078   1.042       .  S
C1079      C1080   1.403       .  A
C1079      C1084   1.412       .  A
C1079      H1086   1.084       .  S
C1080      C1081   1.415       .  A
C1081      C1082   1.396       .  A
C1081      N1088   1.440       .  S
C1082      C1083   1.404       .  A
C1082      H1087   1.079       .  S
C1083      C1084   1.415       .  A
C1084      N1085   1.437       .  S
N1085      H1089   1.046       .  S
N1085      H1090   1.045       .  S
N1088      H1091   1.044       .  S
N1088      H1092   1.046       .  S
N1093      C1097   1.359       .  A
N1093      C1094   1.360       .  A
N1093      C1416   1.447       .  S
C1094      C1095   1.382       .  A
C1094      C1444   1.474       .  S
C1095      C1096   1.368       .  A
C1095      H1098   1.082       .  S
C1096      C1097   1.380       .  A
C1096      H1099   1.082       .  S
C1097      C1430   1.473       .  S
N1100      C1104   1.355       .  A
N1100      C1101   1.359       .  A
N1100      C1374   1.443       .  S
C1101      C1102   1.384       .  A
C1101      C1402   1.474       .  S
C1102      C1103   1.367       .  A
C1102      H1105   1.083       .  S
C1103      C1104   1.378       .  A
C1103      H1106   1.082       .  S
C1104      C1388   1.467       .  S
C1107      C1108   1.397       .  A
C1107      C1112   1.402       .  A
C1107      C1405   1.486       .  S
C1108      C1109   1.407       .  A
C1108      H1113   1.080       .  S
C1109      C1110   1.411       .  A
C1109      C1360   1.506       .  S
C1110      C1111   1.412       .  A
C1110      H1114   1.082       .  S
C1111      C1112   1.408       .  A
C1111      C1447   1.497       .  S
C1112      H1115   1.083       .  S
N1116      C1120   1.355       .  A
N1116      C1117   1.354       .  A
N1116      C1335   1.442       .  S
C1117      C1118   1.382       .  A
C1117      C1363   1.476       .  S
C1118      C1119   1.375       .  A
C1118      H1121   1.082       .  S
C1119      C1120   1.382       .  A
C1119      H1122   1.082       .  S
C1120      C1346   1.478       .  S
O1123     Ni1129   1.941   1_556  S
O1123      C1144   1.274       .  A
O1124     Ni1147   1.903       .  S
O1124      C1133   1.266       .  A
O1125     Ni1129   1.911       .  S
O1125      H1148   0.967       .  S
C1126      C1349   1.489       .  S
C1126      O1143   1.268       .  A
C1126      O1135   1.279       .  A
O1127     Ni1146   1.945       .  S
O1127      C1133   1.275       .  A
O1128     Ni1146   1.902   1_556  S
O1128      C1130   1.269       .  A
Ni1129     O1132   1.931       .  S
Ni1129     O1134   1.918       .  S
C1130      C1391   1.486       .  S
C1130      O1140   1.273       .  A
O1131      C1137   1.279       .  A
O1132      C1137   1.278       .  A
C1133      C1293   1.475       .  S
O1134      C1136   1.271       .  A
C1136      C1304   1.497       .  S
C1136      O1142   1.272       .  A
C1137      C1318   1.493       .  S
H1138      O1139   0.966       .  S
O1139     Ni1147   1.922       .  S
O1139     Ni1141   1.908   1_564  S
O1139     Ni1146   1.922       .  S
O1140     Ni1141   1.925   1_565  S
C1144      C1433   1.460       .  S
C1144      O1145   1.259       .  A
O1149     Ni1155   1.951       .  S
O1149      C1170   1.274       .  A
O1150      C1159   1.270       .  A
O1151     Ni1155   1.924       .  S
O1151     Ni1173   1.909       .  S
O1151     Ni1167   1.897       .  S
O1151      H1174   0.967       .  S
C1152      C1262   1.484       .  S
C1152      O1169   1.265       .  A
C1152      O1161   1.274       .  A
O1153     Ni1172   1.932       .  S
O1153      C1159   1.274       .  A
O1154     Ni1172   1.905       .  S
O1154      C1156   1.270       .  A
Ni1155     O1160   1.908       .  S
C1156      C1279   1.488       .  S
C1156      O1166   1.270       .  A
O1157      C1163   1.272   1_455  A
O1158      C1163   1.275       .  A
C1159      C1419   1.490       .  S
O1160      C1162   1.272       .  A
O1161     Ni1172   1.940       .  S
C1162      C1377   1.500       .  S
C1162      O1168   1.278       .  A
C1163      C1332   1.481       .  S
H1164      O1165   0.966       .  S
O1165     Ni1172   1.926       .  S
Ni1167     O1171   1.877       .  S
O1168     Ni1173   1.951       .  S
C1170      C1248   1.487       .  S
C1170      O1171   1.257       .  A
N1175      C1179   1.354       .  A
N1175      C1176   1.355       .  A
N1175      C1321   1.439       .  S
C1176      C1177   1.384       .  A
C1176      C1237   1.478       .  S
C1177      C1178   1.376       .  A
C1177      H1180   1.082       .  S
C1178      C1179   1.381       .  A
C1178      H1181   1.082       .  S
C1179      C1265   1.480       .  S
N1182      C1186   1.359       .  A
N1182      C1307   1.442       .  S
C1183      C1184   1.384       .  A
C1183      C1220   1.475       .  S
C1184      H1187   1.082       .  S
C1185      C1186   1.379       .  A
C1185      H1188   1.082       .  S
C1186      C1276   1.472       .  S
C1189      C1190   1.401       .  A
C1189      C1194   1.399       .  A
C1189      C1223   1.494       .  S
C1190      C1191   1.411       .  A
C1190      H1195   1.081       .  S
C1191      C1192   1.414       .  A
C1191      C1209   1.505       .  S
C1192      C1193   1.411       .  A
C1192      H1196   1.080       .  S
C1193      C1194   1.405       .  A
C1193      C1234   1.493       .  S
C1194      H1197   1.084       .  S
N1198      C1202   1.358       .  A
N1198      C1199   1.354       .  A
N1198      C1290   1.441       .  S
C1199      C1200   1.382       .  A
C1200      C1201   1.373       .  A
C1200      H1203   1.083       .  S
C1201      C1202   1.381       .  A
C1201      H1204   1.082       .  S
C1202      C1251   1.475       .  S
C1205      C1206   1.398       .  A
C1205      C1210   1.402       .  A
C1205      H1212   1.084       .  S
C1207      N1214   1.437       .  S
C1208      C1209   1.412       .  A
C1209      C1210   1.418       .  A
C1210      N1211   1.429       .  S
N1211      H1215   1.046       .  S
N1211      H1216   1.046       .  S
N1214      H1217   1.044       .  S
N1214      H1218   1.046       .  S
C1219      C1220   1.400       .  A
C1219      C1224   1.396       .  A
C1219      H1226   1.085       .  S
C1220      C1221   1.405       .  A
C1221      C1222   1.409       .  A
C1221      N1228   1.431       .  S
C1222      C1223   1.411       .  A
C1222      H1227   1.083       .  S
C1223      C1224   1.415       .  A
C1224      N1225   1.433       .  S
N1225      H1229   1.046       .  S
N1225      H1230   1.046       .  S
N1228      H1231   1.046       .  S
N1228      H1232   1.045       .  S
C1233      C1234   1.409       .  A
C1233      C1238   1.409       .  A
C1233      H1240   1.084       .  S
C1234      C1235   1.418       .  A
C1235      C1236   1.398       .  A
C1235      N1242   1.430       .  S
C1236      C1237   1.400       .  A
C1236      H1241   1.084       .  S
C1237      C1238   1.407       .  A
C1238      N1239   1.437       .  S
N1239      H1243   1.046       .  S
N1239      H1244   1.046       .  S
N1242      H1245   1.043       .  S
N1242      H1246   1.045       .  S
C1247      C1248   1.412       .  A
C1247      C1252   1.397       .  A
C1247      H1254   1.084       .  S
C1248      C1249   1.416       .  A
C1249      C1250   1.400       .  A
C1250      C1251   1.405       .  A
C1251      C1252   1.406       .  A
C1252      N1253   1.432       .  S
N1253      H1257   1.043       .  S
N1253      H1258   1.045       .  S
N1256      H1259   1.045       .  S
N1256      H1260   1.045       .  S
C1261      C1262   1.406       .  A
C1261      C1266   1.402       .  A
C1261      H1268   1.084       .  S
C1262      C1263   1.413       .  A
C1263      C1264   1.404       .  A
C1263      N1270   1.433       .  S
C1264      C1265   1.403       .  A
C1264      H1269   1.083       .  S
C1265      C1266   1.406       .  A
C1266      N1267   1.432       .  S
N1267      H1271   1.046       .  S
N1267      H1272   1.045       .  S
N1270      H1273   1.046       .  S
N1270      H1274   1.046       .  S
C1275      H1282   1.084   1_455  S
C1276      C1277   1.410       .  A
C1277      C1278   1.402       .  A
C1277      N1284   1.438       .  S
C1278      C1279   1.405       .  A
C1278      H1283   1.083       .  S
C1279      C1280   1.418       .  A
N1281      H1285   1.046       .  S
N1281      H1286   1.046   1_455  S
N1284      H1287   1.043       .  S
N1284      H1288   1.046       .  S
C1289      C1290   1.403       .  A
C1289      C1294   1.395       .  A
C1289      H1296   1.083       .  S
C1290      C1291   1.416       .  A
C1291      C1292   1.410       .  A
C1292      C1293   1.405       .  A
C1293      C1294   1.409       .  A
C1294      N1295   1.433       .  S
N1295      H1299   1.045       .  S
N1295      H1300   1.045       .  S
N1298      H1301   1.043       .  S
N1298      H1302   1.046       .  S
C1303      C1304   1.409       .  A
C1303      C1308   1.404       .  A
C1303      H1310   1.083       .  S
C1304      C1305   1.419       .  A
C1305      C1306   1.408       .  A
C1305      N1312   1.438       .  S
C1306      C1307   1.400       .  A
C1306      H1311   1.083       .  S
C1307      C1308   1.409       .  A
N1309      H1313   1.043       .  S
N1309      H1314   1.043       .  S
N1312      H1315   1.046       .  S
N1312      H1316   1.046       .  S
C1317      C1318   1.405       .  A
C1317      C1322   1.396       .  A
C1317      H1324   1.084       .  S
C1318      C1319   1.420       .  A
C1319      C1320   1.406       .  A
C1319      N1326   1.432       .  S
C1320      C1321   1.398       .  A
C1320      H1325   1.082       .  S
C1321      C1322   1.413       .  A
C1322      N1323   1.432       .  S
N1323      H1327   1.043       .  S
N1323      H1328   1.045       .  S
N1326      H1329   1.046       .  S
N1326      H1330   1.046       .  S
C1331      C1332   1.406       .  A
C1331      C1336   1.407       .  A
C1331      H1338   1.084       .  S
C1332      C1333   1.413       .  A
C1333      C1334   1.397       .  A
C1333      N1340   1.433   1_565  S
C1334      C1335   1.403       .  A
C1334      H1339   1.084       .  S
C1335      C1336   1.415       .  A
C1336      N1337   1.437       .  S
N1337      H1341   1.046       .  S
N1337      H1342   1.042       .  S
N1340      H1343   1.046   1_545  S
N1340      H1344   1.044       .  S
C1345      C1346   1.398       .  A
C1345      C1350   1.408       .  A
C1345      H1352   1.084       .  S
C1346      C1347   1.415       .  A
C1347      C1348   1.394       .  A
C1347      N1354   1.434       .  S
C1348      C1349   1.402       .  A
C1348      H1353   1.084       .  S
C1349      C1350   1.424       .  A
C1350      N1351   1.439   1_565  S
N1351      H1355   1.046   1_655  S
N1351      H1356   1.046   1_645  S
N1354      H1357   1.045       .  S
N1354      H1358   1.043       .  S
C1359      C1360   1.413       .  A
C1359      C1364   1.405       .  A
C1359      H1366   1.083       .  S
C1360      C1361   1.421       .  A
C1361      C1362   1.398       .  A
C1361      N1368   1.429       .  S
C1362      C1363   1.396       .  A
C1362      H1367   1.084       .  S
C1363      C1364   1.411       .  A
C1364      N1365   1.438       .  S
N1365      H1369   1.045       .  S
N1365      H1370   1.044       .  S
N1368      H1371   1.046       .  S
N1368      H1372   1.046       .  S
C1373      C1374   1.403       .  A
C1373      C1378   1.409       .  A
C1373      H1380   1.083       .  S
C1374      C1375   1.415       .  A
C1375      C1376   1.402       .  A
C1375      N1382   1.438       .  S
C1376      C1377   1.408       .  A
C1376      H1381   1.084       .  S
C1377      C1378   1.421       .  A
C1378      N1379   1.431       .  S
N1379      H1383   1.045       .  S
N1379      H1384   1.045       .  S
N1382      H1385   1.043       .  S
C1387      C1388   1.396       .  A
C1387      C1392   1.402       .  A
C1387      H1394   1.084       .  S
C1388      C1389   1.407       .  A
C1389      C1390   1.404       .  A
C1389      N1396   1.438       .  S
C1390      C1391   1.407       .  A
C1390      H1395   1.083       .  S
C1391      C1392   1.419       .  A
C1392      N1393   1.438       .  S
N1393      H1397   1.046       .  S
N1393      H1398   1.046       .  S
N1396      H1399   1.045       .  S
N1396      H1400   1.046       .  S
C1401      C1402   1.401       .  A
C1401      C1406   1.392       .  A
C1401      H1408   1.085       .  S
C1402      C1403   1.409       .  A
C1403      C1404   1.411       .  A
C1403      N1410   1.436       .  S
C1404      C1405   1.407       .  A
C1404      H1409   1.084       .  S
C1405      C1406   1.419       .  A
C1406      N1407   1.435       .  S
N1407      H1411   1.043       .  S
N1407      H1412   1.046       .  S
N1410      H1413   1.045       .  S
N1410      H1414   1.045       .  S
C1415      C1416   1.405       .  A
C1415      C1420   1.402       .  A
C1415      H1422   1.083       .  S
C1416      C1417   1.408       .  A
C1417      C1418   1.404       .  A
C1417      N1424   1.429       .  S
C1418      C1419   1.407       .  A
C1418      H1423   1.084       .  S
C1419      C1420   1.418       .  A
C1420      N1421   1.432       .  S
N1424      H1427   1.046       .  S
N1424      H1428   1.045       .  S
C1429      C1430   1.403       .  A
C1429      C1434   1.395       .  A
C1429      H1436   1.084       .  S
C1430      C1431   1.415       .  A
C1431      C1432   1.398       .  A
C1431      N1438   1.432       .  S
C1432      C1433   1.399       .  A
C1432      H1437   1.084       .  S
C1433      C1434   1.408       .  A
N1435      H1439   1.045       .  S
N1435      H1440   1.043       .  S
N1438      H1441   1.045       .  S
N1438      H1442   1.042       .  S
C1443      C1444   1.402       .  A
C1443      C1448   1.411       .  A
C1443      H1450   1.084       .  S
C1444      C1445   1.413       .  A
C1445      C1446   1.395       .  A
C1445      N1452   1.440       .  S
C1446      C1447   1.405       .  A
C1446      H1451   1.078       .  S
C1447      C1448   1.415       .  A
C1448      N1449   1.437       .  S
N1449      H1453   1.046       .  S
N1449      H1454   1.045       .  S
N1452      H1455   1.044       .  S
N1452      H1456   1.046       .  S
