geometry optimzed in LAMMPS
_audit_creation_date              2020-12-01 
_audit_creation_method            'lammps2cif' 
_symmetry_space_group_name_H-M    'P1' 
_symmetry_Int_Tables_number       1 
_symmetry_cell_setting            triclinic 
loop_ 
_symmetry_equiv_pos_as_xyz 
  x,y,z 
_cell_length_a                    34.02864413 
_cell_length_b                    34.43314349688417 
_cell_length_c                    40.89870821711781 
_cell_angle_alpha                 88.5785728223994 
_cell_angle_beta                  91.33214262612984 
_cell_angle_gamma                 123.12399754857024 
loop_ 
_atom_site_label 
_atom_site_type_symbol 
_atom_site_fract_x 
_atom_site_fract_y 
_atom_site_fract_z 
_atom_site_charge 
N1          N  0.91343137  0.38370408  0.98445013    -0.02400
C2          C  0.91867073  0.41100876  0.00982185     0.00100
C3          C  0.93699489  0.45588798  0.99883840    -0.22700
C4          C  0.93894493  0.45467095  0.46683549    -0.22900
C5          C  0.92054341  0.40920656  0.45843891     0.00000
H6          H  0.94143630  0.48422728  0.01295621     0.13800
H7          H  0.94441214  0.48239238  0.45051581     0.13900
N8          N  0.30604591  0.91457286  0.48494264    -0.02400
C9          C  0.28692364  0.91622875  0.45572273     0.00100
C10         C  0.26223690  0.93704910  0.45977017    -0.22700
C11         C  0.27644716  0.95439764  0.98711933    -0.22900
C12         C  0.30466494  0.94254744  0.00288630     0.00000
H13         H  0.24720854  0.94725848  0.44046365     0.13800
H14         H  0.26725416  0.97790043  0.99567866     0.13900
N15         N  0.43696729  0.42238897  0.48273437    -0.02400
C16         C  0.46427537  0.44384812  0.01009483     0.00100
C17         C  0.50777271  0.47943531  0.99903893    -0.22700
C18         C  0.50915693  0.47275542  0.46370483    -0.22900
C19         C  0.46397572  0.43703113  0.45546931     0.00000
H20         H  0.53955370  0.49975221  0.01343725     0.13800
H21         H  0.53966058  0.48845700  0.44822328     0.13900
O22         O  0.49432807  0.17750626  0.19888109    -0.80800
C23         C  0.66214652  0.25717011  0.27452919     0.98600
O24         O  0.64501144  0.22147020  0.25705745    -0.69900
O25         O  0.55755666  0.15896948  0.27115176    -0.73500
Al26       Al  0.58764522  0.18775496  0.23142025     1.49000
C27         C  0.51669236  0.14580698  0.27957332     0.93800
O28         O  0.52510562  0.24926874  0.27485143    -0.79700
O29         O  0.59537735  0.30231156  0.19422973    -0.73300
Al30       Al  0.51407997  0.21433896  0.23658671     1.90100
O31         O  0.59143806  0.31183787  0.26009212    -0.72300
O32         O  0.66038286  0.28447123  0.20353028    -0.72200
O33         O  0.64975803  0.28536633  0.27002631    -0.77800
O34         O  0.61918974  0.21108882  0.19091317    -0.76000
O35         O  0.57376162  0.23078350  0.23349329    -1.12200
O36         O  0.53361025  0.14443330  0.20588367    -0.71400
C37         C  0.50150565  0.14663018  0.19171285     0.99300
C38         C  0.55566100  0.29189101  0.27791688     0.95700
Al39       Al  0.62014939  0.29068675  0.23214680     1.55600
O40         O  0.49471269  0.16155543  0.26523884    -0.76000
C41         C  0.65258329  0.25205604  0.18508355     0.99900
C42         C  0.55446242  0.29350144  0.19038631     0.94800
O43         O  0.52121610  0.26370698  0.20837402    -0.81300
N44         N  0.90749601  0.33856860  0.48750054    -0.02400
C45         C  0.90623232  0.31380045  0.46163744     0.00100
C46         C  0.89509139  0.27054119  0.47213525    -0.22700
C47         C  0.89187213  0.27039565  0.00494617    -0.22900
C48         C  0.90302788  0.31380005  0.01372771     0.00000
H49         H  0.89621030  0.24528679  0.45764580     0.13800
H50         H  0.89026279  0.24426599  0.02118815     0.13900
N51         N  0.31505471  0.88004314  0.49495676    -0.02400
C52         C  0.31338963  0.86380208  0.02718409     0.00100
C53         C  0.33801865  0.84282290  0.03216572    -0.22700
C54         C  0.35088963  0.84171726  0.49908346    -0.22900
C55         C  0.33769588  0.86471515  0.47776796     0.00000
H56         H  0.34089273  0.82653578  0.05408536     0.13800
H57         H  0.36614962  0.82245399  0.49262730     0.13900
N58         N  0.38747741  0.38963071  0.48454664    -0.02400
C59         C  0.35761956  0.36428048  0.45970198     0.00100
C60         C  0.31470070  0.33032397  0.47232046    -0.22700
C61         C  0.31468107  0.33569940  0.00533752    -0.22900
C62         C  0.35837920  0.37481595  0.01244782     0.00000
H63         H  0.28292837  0.30775432  0.45839767     0.13800
H64         H  0.28392422  0.31922574  0.02057797     0.13900
O65         O  0.18150441  0.50327162  0.28199943    -0.80800
C66         C  0.27153985  0.65094958  0.18943709     0.98600
O67         O  0.24163355  0.64409111  0.21040057    -0.69900
O68         O  0.16579374  0.56052934  0.20285623    -0.73500
Al69       Al  0.20341053  0.59335622  0.23967992     1.49000
C70         C  0.14309504  0.51722341  0.19898045     0.93800
O71         O  0.22827482  0.50051255  0.20048010    -0.79700
O72         O  0.31181739  0.58073856  0.26936223    -0.73300
Al73       Al  0.20703563  0.50586192  0.24091217     1.90100
O74         O  0.30159610  0.55871459  0.20372516    -0.72300
O75         O  0.30815543  0.65362956  0.25679117    -0.72200
O76         O  0.29118219  0.62876707  0.19106666    -0.77800
O77         O  0.23852697  0.62919602  0.27645023    -0.76000
O78         O  0.23624759  0.56717059  0.23721757    -1.12200
O79         O  0.15691058  0.54875059  0.26970224    -0.71400
C80         C  0.15522807  0.51746996  0.28754729     0.99300
C81         C  0.26981087  0.52103204  0.19086893     0.95700
Al82       Al  0.29801022  0.60249565  0.23072443     1.55600
O83         O  0.15102298  0.49189500  0.21723282    -0.76000
C84         C  0.28260248  0.65734142  0.27692613     0.99900
C85         C  0.29467861  0.53915521  0.27786043     0.94800
O86         O  0.25706065  0.50673602  0.26487427    -0.81300
C87         C  0.36223037  0.44397322  0.39031475     0.19700
C88         C  0.36296582  0.48505821  0.39192977    -0.18400
C89         C  0.34763959  0.50006204  0.36542326    -0.10600
C90         C  0.33157846  0.47441690  0.33642522     0.22000
C91         C  0.33292158  0.43453018  0.33422279    -0.20000
C92         C  0.34845580  0.41959588  0.36072849    -0.10800
C93         C  0.30974981  0.48608587  0.30923742    -0.15000
C94         C  0.31915973  0.52901608  0.30358286    -0.28800
C95         C  0.37296942  0.42661041  0.42071982    -0.03100
C96         C  0.35887380  0.38203973  0.42607461    -0.39700
H97         H  0.37349640  0.50462024  0.41433986     0.13100
H98         H  0.34637371  0.53047923  0.36841285     0.12800
H99         H  0.32108616  0.41435196  0.31207426     0.12200
H100        H  0.34876963  0.38862568  0.35801126     0.12400
H101        H  0.28507583  0.45821563  0.29319131     0.15200
H102        H  0.34615272  0.55798858  0.31775742     0.13900
H103        H  0.38800378  0.45028988  0.44114518     0.11600
H104        H  0.33990374  0.35646349  0.40723941     0.13600
C105        C  0.32792603  0.47735804  0.13553093     0.19700
C106        C  0.36891869  0.49621525  0.11706294    -0.18400
C107        C  0.37402332  0.46868380  0.09498592    -0.10600
C108        C  0.33824887  0.42148734  0.09128630     0.22000
C109        C  0.29841927  0.40230370  0.11096947    -0.20000
C110        C  0.29326266  0.42972170  0.13278433    -0.10800
C111        C  0.33983454  0.39088164  0.06694670    -0.15000
C112        C  0.36596210  0.40629280  0.03969410    -0.28800
C113        C  0.32217682  0.50723307  0.15815860    -0.03100
C114        C  0.27946362  0.49818621  0.16508978    -0.39700
H115        H  0.39664770  0.53249384  0.11929234     0.13100
H116        H  0.40597036  0.48450350  0.08105729     0.12800
H117        H  0.27064083  0.36597077  0.10907599     0.12200
H118        H  0.26213078  0.41323923  0.14767225     0.12400
H119        H  0.31515715  0.35378213  0.07024995     0.15200
H120        H  0.39033734  0.44317344  0.03555836     0.13900
H121        H  0.35319284  0.53648538  0.16944386     0.11600
H122        H  0.24880287  0.46995780  0.15276887     0.13600
C123        C  0.30074978  0.74323451  0.34490386     0.19700
C124        C  0.27000422  0.75055949  0.36193333    -0.18400
C125        C  0.28625653  0.78261241  0.38725754    -0.10600
C126        C  0.33412199  0.80862832  0.39625526     0.22000
C127        C  0.36516510  0.80237167  0.37860507    -0.20000
C128        C  0.34887870  0.77024264  0.35323052    -0.10800
C129        C  0.35196118  0.83789151  0.42615750    -0.15000
C130        C  0.32741130  0.85100300  0.44286969    -0.28800
C131        C  0.28032590  0.70575218  0.31993714    -0.03100
C132        C  0.30525328  0.69563047  0.30078167    -0.39700
H133        H  0.23277848  0.73036779  0.35624034     0.13100
H134        H  0.26059184  0.78505308  0.40046456     0.12800
H135        H  0.40211455  0.82150157  0.38510663     0.12200
H136        H  0.37415801  0.76609232  0.34108173     0.12400
H137        H  0.38531455  0.84582751  0.43633711     0.15200
H138        H  0.29466918  0.84443370  0.43289661     0.13900
H139        H  0.24231471  0.68505117  0.31733506     0.11600
H140        H  0.34323336  0.71601614  0.30182261     0.13600
C141        C  0.28692051  0.75690199  0.14355508     0.19700
C142        C  0.27209121  0.74382366  0.11102155    -0.18400
C143        C  0.26866641  0.77397759  0.08933306    -0.10600
C144        C  0.28178790  0.81825248  0.09944051     0.22000
C145        C  0.29811830  0.83179658  0.13153003    -0.20000
C146        C  0.30062452  0.80140980  0.15339008    -0.10800
C147        C  0.26700666  0.84513807  0.08040313    -0.15000
C148        C  0.27759609  0.86105827  0.04937114    -0.28800
C149        C  0.28153163  0.72296321  0.16895182    -0.03100
C150        C  0.28362766  0.68582829  0.16327453    -0.39700
H151        H  0.25982399  0.70920808  0.10299773     0.13100
H152        H  0.25364779  0.76198007  0.06518807     0.12800
H153        H  0.30649728  0.86501870  0.14018442     0.12200
H154        H  0.31131153  0.81192670  0.17848892     0.12400
H155        H  0.24240151  0.85052009  0.09271050     0.15200
H156        H  0.25675507  0.87369222  0.03949773     0.13900
H157        H  0.27459313  0.72847854  0.19367271     0.11600
H158        H  0.29440439  0.68122884  0.13968066     0.13600
C159        C  0.05268875  0.43146779  0.13561169     0.19700
C160        C  0.01559785  0.38455071  0.13572234    -0.18400
C161        C  0.98757979  0.36447827  0.10770694    -0.10600
C162        C  0.99659347  0.39093549  0.07876582     0.22000
C163        C  0.03403439  0.43762866  0.07859562    -0.20000
C164        C  0.06166870  0.45775373  0.10661688    -0.10800
C165        C  0.96989632  0.37093355  0.04773048    -0.15000
C166        C  0.92600962  0.33283363  0.04585129    -0.28800
C167        C  0.08344919  0.45120255  0.16516383    -0.03100
C168        C  0.10796617  0.49675677  0.17210706    -0.39700
H169        H  0.00846248  0.36327912  0.15752655     0.13100
H170        H  0.95994961  0.32804596  0.10860854     0.12800
H171        H  0.04221538  0.45862375  0.05652356     0.12200
H172        H  0.09092829  0.49350458  0.10508933     0.12400
H173        H  0.98699784  0.38914532  0.02514280     0.15200
H174        H  0.90794933  0.31310092  0.06768319     0.13900
H175        H  0.08628773  0.42745981  0.18151898     0.11600
H176        H  0.10367052  0.52046806  0.15686044     0.13600
C177        C  0.08149994  0.43802837  0.35931520     0.19700
C178        C  0.09246069  0.42079283  0.38702786    -0.18400
C179        C  0.05949431  0.39701635  0.41160328    -0.10600
C180        C  0.01439043  0.38859985  0.40846470     0.22000
C181        C  0.00272707  0.40476466  0.38038435    -0.20000
C182        C  0.03617598  0.42958937  0.35604878    -0.10800
C183        C  0.98164441  0.36573661  0.43595976    -0.15000
C184        C  0.93519692  0.33545525  0.43224575    -0.28800
C185        C  0.11753204  0.46261065  0.33372581    -0.03900
C186        C  0.12065270  0.49610591  0.31411679    -0.39700
H187        H  0.12691943  0.42641315  0.38990521     0.13100
H188        H  0.06918353  0.38494959  0.43313258     0.12800
H189        H  0.96829132  0.39916483  0.37761798     0.12200
H190        H  0.02628271  0.44147175  0.33456188     0.12400
H191        H  0.99676574  0.37251717  0.46051734     0.15200
H192        H  0.91929418  0.32446115  0.40812511     0.13900
H193        H  0.14322186  0.45338221  0.33152009     0.11600
H194        H  0.09680661  0.50745256  0.31706743     0.13600
C195        C  0.50191183  0.34963688  0.13807446     0.19700
C196        C  0.45760899  0.33545752  0.12494237    -0.18400
C197        C  0.45253374  0.36380368  0.10241461    -0.10600
C198        C  0.49184483  0.40712372  0.09274803     0.22000
C199        C  0.53557021  0.42226893  0.10724418    -0.20000
C200        C  0.54066180  0.39394684  0.12959296    -0.10800
C201        C  0.48947541  0.43645876  0.06650207    -0.15000
C202        C  0.45899988  0.41821592  0.04123759    -0.28800
C203        C  0.50665309  0.31844438  0.16133678    -0.03100
C204        C  0.54707391  0.32039891  0.16522677    -0.39700
H205        H  0.42700201  0.30202464  0.13169556     0.13100
H206        H  0.41791348  0.35164456  0.09262125     0.12800
H207        H  0.56626144  0.45572262  0.10059466     0.12200
H208        H  0.57499931  0.40713263  0.14030078     0.12400
H209        H  0.51718217  0.47304455  0.06589113     0.15200
H210        H  0.43285539  0.38125281  0.04126961     0.13900
H211        H  0.47616995  0.29321608  0.17543274     0.11600
H212        H  0.57698500  0.34393023  0.15011108     0.13600
C213        C  0.50021501  0.33682369  0.33516141     0.19700
C214        C  0.45965201  0.31653028  0.35429734    -0.18400
C215        C  0.45165049  0.34365463  0.37464946    -0.10600
C216        C  0.48425420  0.39193325  0.37627172     0.22000
C217        C  0.52338421  0.41243804  0.35578155    -0.20000
C218        C  0.53134765  0.38540183  0.33548539    -0.10800
C219        C  0.48079038  0.42207662  0.40002477    -0.15000
C220        C  0.45582083  0.40614854  0.42776817    -0.28800
C221        C  0.50795087  0.30655027  0.31440360    -0.03100
C222        C  0.54976186  0.32009520  0.30150188    -0.39700
H223        H  0.43435924  0.27940017  0.35388278     0.13100
H224        H  0.42010435  0.32651099  0.38906534     0.12800
H225        H  0.54868465  0.44957696  0.35605643     0.12200
H226        H  0.56188002  0.40303633  0.32007342     0.12400
H227        H  0.50393573  0.45935509  0.39641169     0.15200
H228        H  0.43322186  0.36918893  0.43243008     0.13900
H229        H  0.47790601  0.27188452  0.30930479     0.11600
H230        H  0.58054014  0.35414343  0.30659873     0.13600
C231        C  0.37985234  0.98774479  0.39200113     0.19700
C232        C  0.42903495  0.01533082  0.39098832    -0.18400
C233        C  0.45219821  0.04776729  0.36567018    -0.10600
C234        C  0.42655438  0.05348780  0.34061223     0.22000
C235        C  0.37734736  0.02543585  0.34140621    -0.20000
C236        C  0.35419521  0.99296275  0.36670414    -0.10800
C237        C  0.44940788  0.08957120  0.31422668    -0.15000
C238        C  0.49493940  0.11092976  0.30630254    -0.28800
C239        C  0.35701958  0.95954123  0.42206775    -0.03100
C240        C  0.31098169  0.92625947  0.42405294    -0.39700
H241        H  0.44968250  0.01282268  0.41048437     0.13100
H242        H  0.49007309  0.06931671  0.36673397     0.12800
H243        H  0.35662872  0.02934184  0.32269821     0.12200
H244        H  0.31630676  0.97380587  0.36701931     0.12400
H245        H  0.42747172  0.09802374  0.30016592     0.15200
H246        H  0.51709856  0.10144234  0.31866929     0.13900
H247        H  0.37789660  0.97061726  0.44450342     0.11600
H248        H  0.28909377  0.91464501  0.40218825     0.13600
C249        C  0.45033278  0.05085934  0.12710726     0.19700
C250        C  0.47136957  0.04105151  0.10236509    -0.18400
C251        C  0.44472601  0.01391770  0.07574245    -0.10600
C252        C  0.39641438  0.99566183  0.07349258     0.22000
C253        C  0.37479744  0.00289376  0.09952738    -0.20000
C254        C  0.40154068  0.03048437  0.12590554    -0.10800
C255        C  0.37016684  0.97017223  0.04347740    -0.15000
C256        C  0.32887161  0.96389945  0.03426100    -0.28800
C257        C  0.48003042  0.08283358  0.15364276    -0.03100
C258        C  0.47102632  0.11260918  0.16670982    -0.39700
H259        H  0.50879987  0.05575129  0.10306008     0.13100
H260        H  0.46216831  0.00822862  0.05640371     0.12800
H261        H  0.33732653  0.98750489  0.09977214     0.12200
H262        H  0.38399090  0.03578439  0.14535827     0.12400
H263        H  0.38691281  0.95901845  0.02727148     0.15200
H264        H  0.31368156  0.97851615  0.04855563     0.13900
H265        H  0.51182591  0.08440064  0.16078947     0.11600
H266        H  0.44115978  0.11347875  0.15787721     0.13600
C267        C  0.81981437  0.34088132  0.39620277     0.19700
C268        C  0.78698292  0.29409923  0.38899317    -0.18400
C269        C  0.75514609  0.28190256  0.36281955    -0.10600
C270        C  0.75508341  0.31647211  0.34372044     0.22000
C271        C  0.78762936  0.36317503  0.35126893    -0.20000
C272        C  0.81980390  0.37532285  0.37703678    -0.10800
C273        C  0.72002488  0.30565903  0.31717754    -0.15000
C274        C  0.69705516  0.26574592  0.30043463    -0.28800
C275        C  0.85069665  0.35306259  0.42554868    -0.03100
C276        C  0.89415320  0.39182990  0.42712095    -0.39700
H277        H  0.78574082  0.26696442  0.40384800     0.13100
H278        H  0.72974627  0.24551060  0.35837507     0.12800
H279        H  0.78786004  0.39047920  0.33732602     0.12200
H280        H  0.84346309  0.41166800  0.38264952     0.12400
H281        H  0.71380053  0.33264555  0.31053276     0.15200
H282        H  0.70433871  0.23913744  0.30529102     0.13900
H283        H  0.83634944  0.33030545  0.44686189     0.11600
H284        H  0.90829600  0.41472318  0.40586833     0.13600
C285        C  0.75451124  0.31471133  0.12373899     0.19700
C286        C  0.80290113  0.34636656  0.12810678    -0.18400
C287        C  0.83364896  0.35965211  0.10193751    -0.10600
C288        C  0.81641848  0.34242432  0.07039366     0.22000
C289        C  0.76792517  0.31034817  0.06609054    -0.20000
C290        C  0.73722334  0.29656148  0.09244822    -0.10800
C291        C  0.84743714  0.35714614  0.04139033    -0.15000
C292        C  0.89182179  0.39464358  0.04058390    -0.28800
C293        C  0.72312306  0.30331140  0.15200509    -0.03100
C294        C  0.68266679  0.26194341  0.15642607    -0.39700
H295        H  0.81706074  0.36071012  0.15202222     0.13100
H296        H  0.87070550  0.38324733  0.10677959     0.12800
H297        H  0.75362065  0.29645766  0.04212076     0.12200
H298        H  0.69996403  0.27276606  0.08809319     0.12400
H299        H  0.83220702  0.33771880  0.01902632     0.15200
H300        H  0.90699638  0.41734876  0.06138056     0.13900
H301        H  0.73497137  0.32950090  0.17069126     0.11600
H302        H  0.67179254  0.23432494  0.13910533     0.13600
N303        N  0.91351861  0.38306957  0.48588020    -0.02400
C304        C  0.92006048  0.41071129  0.51136319     0.00100
C305        C  0.93856845  0.45560565  0.50038739    -0.22700
C306        C  0.93860119  0.45522517  0.96532405    -0.22900
C307        C  0.92115423  0.40995249  0.95694276     0.00000
H308        H  0.94381300  0.48416929  0.51464798     0.13800
H309        H  0.94438615  0.48294546  0.94887287     0.13900
N310        N  0.31076095  0.91433661  0.98388466    -0.02400
C311        C  0.29158626  0.91393632  0.95421926     0.00100
C312        C  0.26756332  0.93573050  0.95653719    -0.22700
C313        C  0.27021909  0.95279253  0.49120519    -0.22900
C314        C  0.29873106  0.94034041  0.50568670     0.00000
H315        H  0.25270725  0.94476034  0.93636459     0.13800
H316        H  0.26021078  0.97489176  0.50131126     0.13900
N317        N  0.43507387  0.42289638  0.98405505    -0.02400
C318        C  0.46702760  0.44235222  0.50856497     0.00100
C319        C  0.51112810  0.47602939  0.49718582    -0.22700
C320        C  0.50674869  0.47601597  0.96557848    -0.22900
C321        C  0.46274300  0.43831938  0.95711650     0.00000
H322        H  0.54334539  0.49478791  0.51135836     0.13800
H323        H  0.53767161  0.49316476  0.95047713     0.13900
O324        O  0.49293404  0.17730611  0.69910947    -0.80800
C325        C  0.66207383  0.25593450  0.77344486     0.98600
O326        O  0.64442792  0.22044138  0.75575326    -0.69900
O327        O  0.55751827  0.15859362  0.77054598    -0.73500
Al328      Al  0.58655618  0.18717040  0.73077964     1.49000
C329        C  0.51674487  0.14509294  0.77928606     0.93800
O330        O  0.52455564  0.24832746  0.77583618    -0.79700
O331        O  0.59420701  0.30265657  0.69526682    -0.73300
Al332      Al  0.51316914  0.21382412  0.73715366     1.90100
O333        O  0.59115568  0.31081424  0.76137275    -0.72300
O334        O  0.65880984  0.28393426  0.70330017    -0.72200
O335        O  0.64940365  0.28402803  0.76987035    -0.77800
O336        O  0.61740883  0.21065039  0.69022374    -0.76000
O337        O  0.57280802  0.23026020  0.73356877    -1.12200
O338        O  0.53192305  0.14389850  0.70575276    -0.71400
C339        C  0.49963050  0.14608421  0.69190901     0.99300
C340        C  0.55555152  0.29076840  0.77935315     0.95700
Al341      Al  0.61927977  0.29007570  0.73257233     1.55600
O342        O  0.49424874  0.16062647  0.76539933    -0.76000
C343        C  0.65121353  0.25156927  0.68486989     0.99900
C344        C  0.55333742  0.29409340  0.69176251     0.94800
O345        O  0.52007287  0.26372774  0.70949862    -0.81300
N346        N  0.90752206  0.33927553  0.98635401    -0.02400
C347        C  0.90658925  0.31433720  0.96072840     0.00100
C348        C  0.89425486  0.27077586  0.97138710    -0.22700
C349        C  0.89353186  0.27011472  0.50573312    -0.22900
C350        C  0.90408986  0.31323220  0.51471325     0.00000
H351        H  0.89513816  0.24518300  0.95715236     0.13800
H352        H  0.89283250  0.24425980  0.52176993     0.13900
N353        N  0.31960501  0.88041164  0.99581844    -0.02400
C354        C  0.30786398  0.86061762  0.52551953     0.00100
C355        C  0.33215085  0.83912591  0.52909792    -0.22700
C356        C  0.35523725  0.84210288  0.00224081    -0.22900
C357        C  0.34134556  0.86322096  0.97972991     0.00000
H358        H  0.33321391  0.81982609  0.54983217     0.13800
H359        H  0.37040264  0.82236513  0.99695661     0.13900
N360        N  0.38598747  0.38822311  0.98552092    -0.02400
C361        C  0.35720703  0.36215460  0.96047785     0.00100
C362        C  0.31419689  0.32760960  0.97257690    -0.22700
C363        C  0.31647025  0.33837872  0.50522874    -0.22900
C364        C  0.36081797  0.37680751  0.51189485     0.00000
H365        H  0.28307599  0.30440386  0.95826812     0.13800
H366        H  0.28624850  0.32260221  0.52096890     0.13900
O367        O  0.18221759  0.50133345  0.78107669    -0.80800
C368        C  0.27360659  0.65077578  0.69006757     0.98600
O369        O  0.24429223  0.64450859  0.71138476    -0.69900
O370        O  0.16762546  0.56155376  0.70342120    -0.73500
Al371      Al  0.20555674  0.59317751  0.74035123     1.49000
C372        C  0.14451875  0.51835543  0.69903870     0.93800
O373        O  0.23001460  0.50067551  0.69930602    -0.79700
O374        O  0.31276799  0.57891949  0.76935238    -0.73300
Al375      Al  0.20823744  0.50511454  0.73994514     1.90100
O376        O  0.30339982  0.55827825  0.70377766    -0.72300
O377        O  0.31016512  0.65251388  0.75742232    -0.72200
O378        O  0.29309587  0.62843705  0.69159236    -0.77800
O379        O  0.24071408  0.62770452  0.77745485    -0.76000
O380        O  0.23784757  0.56650900  0.73717799    -1.12200
O381        O  0.15884322  0.54811430  0.77001038    -0.71400
C382        C  0.15651593  0.51599656  0.78718771     0.99300
C383        C  0.27190358  0.52094207  0.69044209     0.95700
Al384      Al  0.29967389  0.60162721  0.73098141     1.55600
O385        O  0.15272507  0.49240727  0.71628826    -0.76000
C386        C  0.28476371  0.65570894  0.77797420     0.99900
C387        C  0.29523126  0.53707532  0.77729781     0.94800
O388        O  0.25773133  0.50510270  0.76386809    -0.81300
C389        C  0.35998378  0.43921972  0.88977274     0.19700
C390        C  0.37022267  0.48466209  0.88859174    -0.18400
C391        C  0.35447871  0.49985898  0.86246514    -0.10600
C392        C  0.32827999  0.46987391  0.83662477     0.22000
C393        C  0.31994468  0.42522057  0.83703074    -0.20000
C394        C  0.33576205  0.41002841  0.86311737    -0.10800
C395        C  0.30619775  0.48238035  0.81015023    -0.15000
C396        C  0.31943504  0.52613793  0.80266768    -0.28800
C397        C  0.37082233  0.42283375  0.92067278    -0.03100
C398        C  0.35913210  0.37908757  0.92655877    -0.39700
H399        H  0.38875602  0.50797486  0.90869566     0.13100
H400        H  0.36114611  0.53429216  0.86358842     0.12800
H401        H  0.30003322  0.40146701  0.81739946     0.12200
H402        H  0.32731633  0.37496639  0.86245911     0.12400
H403        H  0.27777164  0.45418574  0.79614548     0.15200
H404        H  0.34925117  0.55518602  0.81496034     0.13900
H405        H  0.38474979  0.44686340  0.94091421     0.11600
H406        H  0.34298506  0.35307233  0.90780553     0.13600
C407        C  0.33326817  0.48015049  0.63577493     0.19700
C408        C  0.37219135  0.50031987  0.61505620    -0.18400
C409        C  0.37770986  0.47298119  0.59303761    -0.10600
C410        C  0.34451028  0.42471773  0.59169773     0.22000
C411        C  0.30731241  0.40448488  0.61387716    -0.20000
C412        C  0.30170241  0.43169822  0.63559051    -0.10800
C413        C  0.34539097  0.39396337  0.56705560    -0.15000
C414        C  0.36983558  0.40889454  0.53905726    -0.28800
C415        C  0.32604590  0.50958058  0.65777689    -0.03100
C416        C  0.28260350  0.49810513  0.66528155    -0.39700
H417        H  0.39765697  0.53740619  0.61530620     0.13100
H418        H  0.40775879  0.48991921  0.57714813     0.12800
H419        H  0.28164323  0.36741548  0.61389152     0.12200
H420        H  0.27246915  0.41458596  0.65224498     0.12400
H421        H  0.32142304  0.35683187  0.57086461     0.15200
H422        H  0.39400524  0.44565636  0.53433056     0.13900
H423        H  0.35650931  0.54062782  0.66791099     0.11600
H424        H  0.25249049  0.46813311  0.65384170     0.13600
C425        C  0.30303159  0.73946084  0.84741268     0.19700
C426        C  0.27257688  0.74754496  0.86406108    -0.18400
C427        C  0.28887098  0.77911872  0.88966686    -0.10600
C428        C  0.33648424  0.80385245  0.89934324     0.22000
C429        C  0.36723825  0.79671654  0.88214030    -0.20000
C430        C  0.35089290  0.76503249  0.85650241    -0.10800
C431        C  0.35434196  0.83312629  0.92922042    -0.15000
C432        C  0.33015647  0.84706235  0.94541720    -0.28800
C433        C  0.28253079  0.70261713  0.82204966    -0.03100
C434        C  0.30748368  0.69323431  0.80233614    -0.39700
H435        H  0.23554107  0.72838815  0.85778365     0.13100
H436        H  0.26333786  0.78223483  0.90246137     0.12800
H437        H  0.40396284  0.81484590  0.88916097     0.12200
H438        H  0.37586457  0.76001472  0.84475698     0.12400
H439        H  0.38763409  0.84105109  0.93951771     0.15200
H440        H  0.29738678  0.84032726  0.93539999     0.13900
H441        H  0.24451737  0.68199025  0.81948491     0.11600
H442        H  0.34547015  0.71377022  0.80323258     0.13600
C443        C  0.28703369  0.75429356  0.64177309     0.19700
C444        C  0.26762984  0.73809096  0.61048156    -0.18400
C445        C  0.26242752  0.76667197  0.58830325    -0.10600
C446        C  0.27781484  0.81221558  0.59669431     0.22000
C447        C  0.29914048  0.82899740  0.62729322    -0.20000
C448        C  0.30368167  0.80028658  0.64964997    -0.10800
C449        C  0.26010784  0.83708251  0.57833897    -0.15000
C450        C  0.27082190  0.85499788  0.54778034    -0.28800
C451        C  0.28331371  0.72226460  0.66820015    -0.03100
C452        C  0.28478727  0.68462050  0.66328642    -0.39700
H453        H  0.25317497  0.70237427  0.60406741     0.13100
H454        H  0.24397245  0.75245317  0.56536650     0.12800
H455        H  0.30962537  0.86343304  0.63464449     0.12200
H456        H  0.31808888  0.81328229  0.67377799     0.12400
H457        H  0.23362584  0.83937875  0.59085735     0.15200
H458        H  0.24901468  0.86678000  0.53833949     0.13900
H459        H  0.27799733  0.72951472  0.69286884     0.11600
H460        H  0.29400174  0.67855116  0.63957017     0.13600
C461        C  0.05172013  0.43329301  0.63650311     0.19700
C462        C  0.01882370  0.38515395  0.63546993    -0.18400
C463        C  0.99109496  0.36454473  0.60747531    -0.10600
C464        C  0.99611809  0.39176882  0.57973278     0.22000
C465        C  0.02872397  0.43983027  0.58078219    -0.20000
C466        C  0.05610634  0.46047926  0.60880801    -0.10800
C467        C  0.97044312  0.37122463  0.54859438    -0.15000
C468        C  0.92717599  0.33231127  0.54676595    -0.28800
C469        C  0.08350340  0.45320104  0.66556782    -0.03100
C470        C  0.10836856  0.49864270  0.67281888    -0.39700
H471        H  0.01516389  0.36327230  0.65622188     0.13100
H472        H  0.96712320  0.32723723  0.60722215     0.12800
H473        H  0.03349634  0.46146456  0.55959271     0.12200
H474        H  0.08185094  0.49742062  0.60800658     0.12400
H475        H  0.98727926  0.39000815  0.52610885     0.15200
H476        H  0.90969827  0.31233394  0.56867850     0.13900
H477        H  0.08741524  0.42948580  0.68118452     0.11600
H478        H  0.10362951  0.52276207  0.65852644     0.13600
C479        C  0.08311932  0.43743798  0.85916201     0.19700
C480        C  0.09520305  0.42534749  0.88892696    -0.18400
C481        C  0.06194036  0.40268679  0.91349861    -0.10600
C482        C  0.01556979  0.39014465  0.90832793     0.22000
C483        C  0.00295392  0.40115563  0.87821407    -0.20000
C484        C  0.03661602  0.42494081  0.85386722    -0.10800
C485        C  0.98216068  0.36814740  0.93557086    -0.15000
C486        C  0.93628383  0.33553915  0.93157555    -0.28800
C487        C  0.11933471  0.46151431  0.83369870    -0.03900
C488        C  0.12183478  0.49430046  0.81363567    -0.39700
H489        H  0.13068722  0.43427106  0.89338361     0.13100
H490        H  0.07238382  0.39465523  0.93660878     0.12800
H491        H  0.96753302  0.39238882  0.87379509     0.12200
H492        H  0.02614187  0.43300979  0.83081455     0.12400
H493        H  0.99640955  0.37757630  0.96028659     0.15200
H494        H  0.92163297  0.32195602  0.90753961     0.13900
H495        H  0.14565026  0.45301085  0.83219848     0.11600
H496        H  0.09737309  0.50496279  0.81628979     0.13600
C497        C  0.50148446  0.35186324  0.64022268     0.19700
C498        C  0.45730608  0.33769598  0.62680598    -0.18400
C499        C  0.45267280  0.36541883  0.60337147    -0.10600
C500        C  0.49227814  0.40815341  0.59315542     0.22000
C501        C  0.53577497  0.42359074  0.60817193    -0.20000
C502        C  0.54044923  0.39584221  0.63135621    -0.10800
C503        C  0.49053665  0.43645236  0.56578509    -0.15000
C504        C  0.46076717  0.41736017  0.54020135    -0.28800
C505        C  0.50603837  0.32067527  0.66369569    -0.03100
C506        C  0.54611311  0.32183107  0.66717101    -0.39700
H507        H  0.42652063  0.30456894  0.63384808     0.13100
H508        H  0.41822941  0.35315664  0.59316615     0.12800
H509        H  0.56667294  0.45667988  0.60115692     0.12200
H510        H  0.57469119  0.40905998  0.64225281     0.12400
H511        H  0.51829484  0.47302474  0.56469868     0.15200
H512        H  0.43433794  0.38044376  0.54067600     0.13900
H513        H  0.47558497  0.29571460  0.67792091     0.11600
H514        H  0.57593021  0.34518309  0.65192131     0.13600
C515        C  0.50294247  0.33601715  0.83912756     0.19700
C516        C  0.46285257  0.31604115  0.85872241    -0.18400
C517        C  0.45530900  0.34345586  0.87911899    -0.10600
C518        C  0.48793394  0.39178157  0.88040478     0.22000
C519        C  0.52700064  0.41189916  0.85986426    -0.20000
C520        C  0.53446775  0.38456693  0.83947096    -0.10800
C521        C  0.48394968  0.42248775  0.90336174    -0.15000
C522        C  0.45733088  0.40708289  0.93039121    -0.28800
C523        C  0.50951605  0.30548741  0.81768196    -0.03100
C524        C  0.55065582  0.31881201  0.80374050    -0.39700
H525        H  0.43734888  0.27895083  0.85842647     0.13100
H526        H  0.42385134  0.32646704  0.89360651     0.12800
H527        H  0.55238560  0.44902758  0.85991564     0.12200
H528        H  0.56476408  0.40201606  0.82384791     0.12400
H529        H  0.50713456  0.45968185  0.89939234     0.15200
H530        H  0.43485873  0.37021049  0.93535473     0.13900
H531        H  0.47911546  0.27094706  0.81281670     0.11600
H532        H  0.58176185  0.35270320  0.80863319     0.13600
C533        C  0.38427203  0.98417427  0.89083099     0.19700
C534        C  0.43329097  0.01443580  0.89046900    -0.18400
C535        C  0.45543463  0.04740974  0.86533270    -0.10600
C536        C  0.42887411  0.05085188  0.83982747     0.22000
C537        C  0.37997489  0.01996471  0.83983111    -0.20000
C538        C  0.35784255  0.98698929  0.86493759    -0.10800
C539        C  0.45038824  0.08744537  0.81380119    -0.15000
C540        C  0.49588932  0.10999403  0.80580717    -0.28800
C541        C  0.36190093  0.95608744  0.92097458    -0.03100
C542        C  0.31607859  0.92217372  0.92297979    -0.39700
H543        H  0.45444370  0.01378020  0.91041286     0.13100
H544        H  0.49307218  0.07124724  0.86692493     0.12800
H545        H  0.35862806  0.02206653  0.82069123     0.12200
H546        H  0.31994828  0.96565762  0.86464172     0.12400
H547        H  0.42758275  0.09499857  0.79999383     0.15200
H548        H  0.51869810  0.10104575  0.81783374     0.13900
H549        H  0.38245076  0.96846908  0.94350090     0.11600
H550        H  0.29444195  0.90907799  0.90107466     0.13600
C551        C  0.44592468  0.04771998  0.62918300     0.19700
C552        C  0.46647004  0.03780313  0.60415852    -0.18400
C553        C  0.43926840  0.01032509  0.57782007    -0.10600
C554        C  0.39082415  0.99165023  0.57619486     0.22000
C555        C  0.36972393  0.99882819  0.60263523    -0.20000
C556        C  0.39707895  0.02693703  0.62867347    -0.10800
C557        C  0.36417246  0.96644995  0.54614548    -0.15000
C558        C  0.32222906  0.95924666  0.53771138    -0.28800
C559        C  0.47620835  0.08035724  0.65522788    -0.03100
C560        C  0.46841955  0.11152049  0.66735035    -0.39700
H561        H  0.50396969  0.05284171  0.60433989     0.13100
H562        H  0.45639463  0.00479350  0.55817047     0.12800
H563        H  0.33225810  0.98323715  0.60340640     0.12200
H564        H  0.38003387  0.03248112  0.64836878     0.12400
H565        H  0.38139171  0.95693006  0.52903855     0.15200
H566        H  0.30621767  0.97200887  0.55303388     0.13900
H567        H  0.50755459  0.08124119  0.66268163     0.11600
H568        H  0.43888597  0.11278528  0.65822622     0.13600
C569        C  0.82348882  0.34130049  0.89256500     0.19700
C570        C  0.78819531  0.29458067  0.88712197    -0.18400
C571        C  0.75673484  0.28206954  0.86068302    -0.10600
C572        C  0.75959946  0.31631914  0.83945515     0.22000
C573        C  0.79509409  0.36291620  0.84483201    -0.20000
C574        C  0.82681088  0.37533446  0.87093255    -0.10800
C575        C  0.72413785  0.30565731  0.81329743    -0.15000
C576        C  0.69789426  0.26438982  0.79850717    -0.28800
C577        C  0.85301157  0.35404587  0.92272497    -0.03100
C578        C  0.89656267  0.39258354  0.92502295    -0.39700
H579        H  0.78443694  0.26780071  0.90375824     0.13100
H580        H  0.72912473  0.24588857  0.85782435     0.12800
H581        H  0.79769097  0.39002404  0.82911953     0.12200
H582        H  0.85244931  0.41179608  0.87492026     0.12400
H583        H  0.72008814  0.33369102  0.80543827     0.15200
H584        H  0.70321257  0.23664076  0.80429201     0.13900
H585        H  0.83741947  0.33184242  0.94417262     0.11600
H586        H  0.91230351  0.41520452  0.90381630     0.13600
C587        C  0.75432191  0.31536443  0.62450519     0.19700
C588        C  0.79998248  0.35492094  0.62710040    -0.18400
C589        C  0.83161018  0.36882541  0.60144743    -0.10600
C590        C  0.81807175  0.34350212  0.57225710     0.22000
C591        C  0.77237885  0.30376358  0.56974426    -0.20000
C592        C  0.74078700  0.28979957  0.59548232    -0.10800
C593        C  0.84916801  0.35802098  0.54331726    -0.15000
C594        C  0.89388973  0.39479983  0.54237072    -0.28800
C595        C  0.72157028  0.30349776  0.65199792    -0.03100
C596        C  0.68235829  0.26129784  0.65702083    -0.39700
H597        H  0.81123730  0.37541977  0.64909944     0.13100
H598        H  0.86607090  0.39977661  0.60476447     0.12800
H599        H  0.76075092  0.28376388  0.54752222     0.12200
H600        H  0.70558356  0.25980327  0.59206047     0.12400
H601        H  0.83383138  0.33830618  0.52107186     0.15200
H602        H  0.91045743  0.41688185  0.56329446     0.13900
H603        H  0.73094941  0.33067122  0.66944043     0.11600
H604        H  0.67321588  0.23277391  0.64105623     0.13600
loop_ 
_geom_bond_atom_site_label_1 
_geom_bond_atom_site_label_2 
_geom_bond_distance 
_geom_bond_site_symmetry_2 
_ccdc_geom_bond_type 
N1            C2   1.360   1_556  A
N1          C307   1.362       .  A
N1          N346   1.430       .  S
C2            C3   1.380   1_554  A
C2          C292   1.480       .  S
C3          C306   1.374       .  A
C3            H6   1.082   1_556  S
C4            C5   1.381       .  A
C4          C305   1.374       .  A
C4            H7   1.082       .  S
C5          N303   1.362       .  A
C5          C276   1.484       .  S
N8            C9   1.362       .  A
N8          C314   1.363       .  A
N8           N51   1.430       .  S
C9           C10   1.385       .  A
C9          C240   1.478       .  S
C10         C313   1.370       .  A
C10          H13   1.083       .  S
C11          C12   1.375   1_556  A
C11         C312   1.371       .  A
C11          H14   1.082       .  S
C12         N310   1.362   1_554  A
C12         C256   1.484       .  S
N15          C19   1.362       .  A
N15         C318   1.361       .  A
N15          N58   1.428       .  S
C16         N317   1.359   1_554  A
C16          C17   1.385   1_554  A
C16         C202   1.488       .  S
C17         C320   1.374       .  A
C17          H20   1.082   1_556  S
C18          C19   1.386       .  A
C18         C319   1.374       .  A
C18          H21   1.082       .  S
C19         C220   1.488       .  S
O22          C37   1.256       .  A
O22         Al30   1.886       .  S
C23         C274   1.481       .  S
C23          O33   1.261       .  A
C23          O24   1.266       .  A
O24         Al26   1.936       .  S
O25          C27   1.258       .  A
O25         Al26   1.887       .  S
Al26         O34   1.902       .  S
Al26         O36   1.920       .  S
Al26         O35   1.788       .  S
C27         C238   1.479       .  S
C27          O40   1.267       .  A
O28          C38   1.259       .  A
O28         Al30   1.900       .  S
O29          C42   1.259       .  A
O29         Al39   1.885       .  S
Al30         O43   1.935       .  S
Al30         O40   1.932       .  S
Al30         O35   1.792       .  S
O31          C38   1.260       .  A
O31         Al39   1.914       .  S
O32          C41   1.263       .  A
O32         Al39   1.923       .  S
O33         Al39   1.888       .  S
O34          C41   1.258       .  A
O35         Al39   1.786       .  S
O36          C37   1.262       .  A
C37         C258   1.475       .  S
C38         C222   1.477       .  S
C41         C294   1.481       .  S
C42         C204   1.475       .  S
C42          O43   1.267       .  A
N44          C45   1.360       .  A
N44         C350   1.364       .  A
N44         N303   1.431       .  S
C45          C46   1.380       .  A
C45         C184   1.476       .  S
C46         C349   1.376       .  A
C46          H49   1.082       .  S
C47          C48   1.381       .  A
C47         C348   1.376   1_554  A
C47          H50   1.083       .  S
C48         N346   1.363   1_554  A
C48         C166   1.484       .  S
N51          C55   1.362       .  A
N51         C354   1.365       .  A
C52         N353   1.364   1_554  A
C52          C53   1.383       .  A
C52         C148   1.496       .  S
C53         C356   1.376       .  A
C53          H56   1.076       .  S
C54          C55   1.387       .  A
C54         C355   1.375       .  A
C54          H57   1.082       .  S
C55         C130   1.487       .  S
N58          C59   1.361       .  A
N58         C364   1.362       .  A
C59          C60   1.380       .  A
C59          C96   1.483       .  S
C60         C363   1.374       .  A
C60          H63   1.083       .  S
C61          C62   1.386       .  A
C61         C362   1.373   1_554  A
C61          H64   1.081       .  S
C62         N360   1.363   1_554  A
C62         C112   1.491       .  S
O65          C80   1.258       .  A
O65         Al73   1.887       .  S
C66         C150   1.474       .  S
C66          O76   1.260       .  A
C66          O67   1.263       .  A
O67         Al69   1.914       .  S
O68          C70   1.262       .  A
O68         Al69   1.897       .  S
Al69         O77   1.900       .  S
Al69         O79   1.926       .  S
Al69         O78   1.784       .  S
C70         C168   1.480       .  S
C70          O83   1.267       .  A
O71          C81   1.254       .  A
O71         Al73   1.873       .  S
O72          C85   1.258       .  A
O72         Al82   1.890       .  S
Al73         O86   1.931       .  S
Al73         O83   1.933       .  S
Al73         O78   1.779       .  S
O74          C81   1.266       .  A
O74         Al82   1.949       .  S
O75          C84   1.269       .  A
O75         Al82   1.941       .  S
O76         Al82   1.909       .  S
O77          C84   1.265       .  A
O78         Al82   1.784       .  S
O79          C80   1.262       .  A
C80         C186   1.477       .  S
C81         C114   1.476       .  S
C84         C132   1.484       .  S
C85          C94   1.477       .  S
C85          O86   1.266       .  A
C87          C88   1.404       .  A
C87          C92   1.408       .  A
C87          C95   1.489       .  S
C88          C89   1.398       .  A
C88          H97   1.083       .  S
C89          C90   1.407       .  A
C89          H98   1.082       .  S
C90          C91   1.404       .  A
C90          C93   1.488       .  S
C91          C92   1.401       .  A
C91          H99   1.083       .  S
C92         H100   1.081       .  S
C93         H101   1.087       .  S
C93          C94   1.345       .  D
C94         H102   1.085       .  S
C95         H103   1.087       .  S
C95          C96   1.348       .  D
C96         H104   1.084       .  S
C105        C106   1.405       .  A
C105        C110   1.408       .  A
C105        C113   1.493       .  S
C106        C107   1.405       .  A
C106        H115   1.083       .  S
C107        C108   1.410       .  A
C107        H116   1.081       .  S
C108        C109   1.403       .  A
C108        C111   1.490       .  S
C109        C110   1.396       .  A
C109        H117   1.083       .  S
C110        H118   1.082       .  S
C111        H119   1.086       .  S
C111        C112   1.347       .  D
C112        H120   1.083       .  S
C113        H121   1.086       .  S
C113        C114   1.345       .  D
C114        H122   1.086       .  S
C123        C124   1.405       .  A
C123        C128   1.410       .  A
C123        C131   1.498       .  S
C124        C125   1.400       .  A
C124        H133   1.084       .  S
C125        C126   1.409       .  A
C125        H134   1.080       .  S
C126        C127   1.405       .  A
C126        C129   1.496       .  S
C127        C128   1.403       .  A
C127        H135   1.083       .  S
C128        H136   1.079       .  S
C129        H137   1.087       .  S
C129        C130   1.350       .  D
C130        H138   1.080       .  S
C131        H139   1.087       .  S
C131        C132   1.350       .  D
C132        H140   1.083       .  S
C141        C142   1.406       .  A
C141        C146   1.403       .  A
C141        C149   1.481       .  S
C142        C143   1.400       .  A
C142        H151   1.083       .  S
C143        C144   1.405       .  A
C143        H152   1.083       .  S
C144        C145   1.401       .  A
C144        C147   1.473       .  S
C145        C146   1.396       .  A
C145        H153   1.084       .  S
C146        H154   1.084       .  S
C147        H155   1.087       .  S
C147        C148   1.346       .  D
C148        H156   1.082       .  S
C149        H157   1.088       .  S
C149        C150   1.345       .  D
C150        H158   1.085       .  S
C159        C160   1.405       .  A
C159        C164   1.407       .  A
C159        C167   1.491       .  S
C160        C161   1.403   1_455  A
C160        H169   1.084       .  S
C161        C162   1.408       .  A
C161        H170   1.081       .  S
C162        C163   1.403   1_655  A
C162        C165   1.489       .  S
C163        C164   1.398       .  A
C163        H171   1.084       .  S
C164        H172   1.082       .  S
C165        H173   1.088       .  S
C165        C166   1.347       .  D
C166        H174   1.084       .  S
C167        H175   1.087       .  S
C167        C168   1.348       .  D
C168        H176   1.085       .  S
C177        C178   1.402       .  A
C177        C182   1.408       .  A
C177        C185   1.482       .  S
C178        C179   1.395       .  A
C178        H187   1.083       .  S
C179        C180   1.401       .  A
C179        H188   1.084       .  S
C180        C181   1.405       .  A
C180        C183   1.477   1_455  S
C181        C182   1.401       .  A
C181        H189   1.082   1_455  S
C182        H190   1.083       .  S
C183        H191   1.088       .  S
C183        C184   1.343       .  D
C184        H192   1.086       .  S
C185        H193   1.087       .  S
C185        C186   1.345       .  D
C186        H194   1.086       .  S
C195        C196   1.404       .  A
C195        C200   1.408       .  A
C195        C203   1.489       .  S
C196        C197   1.401       .  A
C196        H205   1.083       .  S
C197        C198   1.409       .  A
C197        H206   1.082       .  S
C198        C199   1.401       .  A
C198        C201   1.487       .  S
C199        C200   1.396       .  A
C199        H207   1.084       .  S
C200        H208   1.081       .  S
C201        H209   1.085       .  S
C201        C202   1.345       .  D
C202        H210   1.083       .  S
C203        H211   1.087       .  S
C203        C204   1.346       .  D
C204        H212   1.085       .  S
C213        C214   1.405       .  A
C213        C218   1.409       .  A
C213        C221   1.494       .  S
C214        C215   1.402       .  A
C214        H223   1.083       .  S
C215        C216   1.409       .  A
C215        H224   1.081       .  S
C216        C217   1.403       .  A
C216        C219   1.491       .  S
C217        C218   1.398       .  A
C217        H225   1.083       .  S
C218        H226   1.080       .  S
C219        H227   1.087       .  S
C219        C220   1.347       .  D
C220        H228   1.083       .  S
C221        H229   1.087       .  S
C221        C222   1.348       .  D
C222        H230   1.084       .  S
C231        C232   1.403   1_565  A
C231        C236   1.409       .  A
C231        C239   1.490       .  S
C232        C233   1.400       .  A
C232        H241   1.083       .  S
C233        C234   1.410       .  A
C233        H242   1.080       .  S
C234        C235   1.404       .  A
C234        C237   1.493       .  S
C235        C236   1.400   1_545  A
C235        H243   1.084       .  S
C236        H244   1.081       .  S
C237        H245   1.087       .  S
C237        C238   1.346       .  D
C238        H246   1.084       .  S
C239        H247   1.088       .  S
C239        C240   1.347       .  D
C240        H248   1.084       .  S
C249        C250   1.402       .  A
C249        C254   1.406       .  A
C249        C257   1.484       .  S
C250        C251   1.400       .  A
C250        H259   1.083       .  S
C251        C252   1.405   1_545  A
C251        H260   1.083       .  S
C252        C253   1.409   1_565  A
C252        C255   1.490       .  S
C253        C254   1.398       .  A
C253        H261   1.081   1_545  S
C254        H262   1.082       .  S
C255        H263   1.087       .  S
C255        C256   1.346       .  D
C256        H264   1.084       .  S
C257        H265   1.087       .  S
C257        C258   1.345       .  D
C258        H266   1.086       .  S
C267        C268   1.404       .  A
C267        C272   1.405       .  A
C267        C275   1.485       .  S
C268        C269   1.403       .  A
C268        H277   1.083       .  S
C269        C270   1.408       .  A
C269        H278   1.082       .  S
C270        C271   1.404       .  A
C270        C273   1.488       .  S
C271        C272   1.397       .  A
C271        H279   1.084       .  S
C272        H280   1.082       .  S
C273        H281   1.087       .  S
C273        C274   1.348       .  D
C274        H282   1.085       .  S
C275        H283   1.086       .  S
C275        C276   1.347       .  D
C276        H284   1.086       .  S
C285        C286   1.402       .  A
C285        C290   1.406       .  A
C285        C293   1.486       .  S
C286        C287   1.398       .  A
C286        H295   1.084       .  S
C287        C288   1.408       .  A
C287        H296   1.080       .  S
C288        C289   1.406       .  A
C288        C291   1.491       .  S
C289        C290   1.401       .  A
C289        H297   1.083       .  S
C290        H298   1.083       .  S
C291        H299   1.087       .  S
C291        C292   1.348       .  D
C292        H300   1.083       .  S
C293        H301   1.087       .  S
C293        C294   1.346       .  D
C294        H302   1.086       .  S
N303        C304   1.360       .  A
C304        C305   1.379       .  A
C304        C594   1.479       .  S
C305        H308   1.082       .  S
C306        C307   1.380       .  A
C306        H309   1.082       .  S
C307        C578   1.484       .  S
N310        C311   1.361       .  A
N310        N353   1.429       .  S
C311        C312   1.385       .  A
C311        C542   1.477       .  S
C312        H315   1.083       .  S
C313        C314   1.375       .  A
C313        H316   1.082       .  S
C314        C558   1.484       .  S
N317        C321   1.362       .  A
N317        N360   1.429       .  S
C318        C319   1.385       .  A
C318        C504   1.489       .  S
C319        H322   1.082       .  S
C320        C321   1.386       .  A
C320        H323   1.082       .  S
C321        C522   1.489       .  S
O324        C339   1.257       .  A
O324       Al332   1.891       .  S
C325        C576   1.480       .  S
C325        O335   1.261       .  A
C325        O326   1.265       .  A
O326       Al328   1.932       .  S
O327        C329   1.257       .  A
O327       Al328   1.877       .  S
Al328       O336   1.896       .  S
Al328       O338   1.919       .  S
Al328       O337   1.790       .  S
C329        C540   1.475       .  S
C329        O342   1.268       .  A
O330        C340   1.260       .  A
O330       Al332   1.904       .  S
O331        C344   1.259       .  A
O331       Al341   1.885       .  S
Al332       O345   1.940       .  S
Al332       O342   1.935       .  S
Al332       O337   1.793       .  S
O333        C340   1.260       .  A
O333       Al341   1.912       .  S
O334        C343   1.263       .  A
O334       Al341   1.920       .  S
O335       Al341   1.888       .  S
O336        C343   1.258       .  A
O337       Al341   1.784       .  S
O338        C339   1.262       .  A
C339        C560   1.477       .  S
C340        C524   1.479       .  S
C343        C596   1.477       .  S
C344        C506   1.477       .  S
C344        O345   1.268       .  A
N346        C347   1.360       .  A
C347        C348   1.380       .  A
C347        C486   1.477       .  S
C348        H351   1.082       .  S
C349        C350   1.381       .  A
C349        H352   1.083       .  S
C350        C468   1.483       .  S
N353        C357   1.361       .  A
C354        C355   1.382       .  A
C354        C450   1.494       .  S
C355        H358   1.077       .  S
C356        C357   1.386   1_554  A
C356        H359   1.082   1_554  S
C357        C432   1.485       .  S
N360        C361   1.361       .  A
C361        C362   1.380       .  A
C361        C398   1.480       .  S
C362        H365   1.083       .  S
C363        C364   1.385       .  A
C363        H366   1.082       .  S
C364        C414   1.491       .  S
O367        C382   1.258       .  A
O367       Al375   1.888       .  S
C368        C452   1.474       .  S
C368        O378   1.260       .  A
C368        O369   1.264       .  A
O369       Al371   1.920       .  S
O370        C372   1.261       .  A
O370       Al371   1.894       .  S
Al371       O379   1.897       .  S
Al371       O381   1.925       .  S
Al371       O380   1.784       .  S
C372        C470   1.479       .  S
C372        O385   1.267       .  A
O373        C383   1.255       .  A
O373       Al375   1.878       .  S
O374        C387   1.258       .  A
O374       Al384   1.887       .  S
Al375       O388   1.928       .  S
Al375       O385   1.931       .  S
Al375       O380   1.778       .  S
O376        C383   1.265       .  A
O376       Al384   1.944       .  S
O377        C386   1.268       .  A
O377       Al384   1.939       .  S
O378       Al384   1.906       .  S
O379        C386   1.264       .  A
O380       Al384   1.784       .  S
O381        C382   1.261       .  A
C382        C488   1.475       .  S
C383        C416   1.477       .  S
C386        C434   1.482       .  S
C387        C396   1.475       .  S
C387        O388   1.267       .  A
C389        C390   1.405       .  A
C389        C394   1.409       .  A
C389        C397   1.491       .  S
C390        C391   1.398       .  A
C390        H399   1.083       .  S
C391        C392   1.408       .  A
C391        H400   1.081       .  S
C392        C393   1.403       .  A
C392        C395   1.488       .  S
C393        C394   1.398       .  A
C393        H401   1.084       .  S
C394        H402   1.078       .  S
C395        H403   1.087       .  S
C395        C396   1.345       .  D
C396        H404   1.084       .  S
C397        H405   1.087       .  S
C397        C398   1.348       .  D
C398        H406   1.081       .  S
C407        C408   1.404       .  A
C407        C412   1.407       .  A
C407        C415   1.492       .  S
C408        C409   1.406       .  A
C408        H417   1.083       .  S
C409        C410   1.411       .  A
C409        H418   1.081       .  S
C410        C411   1.403       .  A
C410        C413   1.492       .  S
C411        C412   1.396       .  A
C411        H419   1.083       .  S
C412        H420   1.082       .  S
C413        H421   1.087       .  S
C413        C414   1.347       .  D
C414        H422   1.083       .  S
C415        H423   1.086       .  S
C415        C416   1.346       .  D
C416        H424   1.086       .  S
C425        C426   1.404       .  A
C425        C430   1.410       .  A
C425        C433   1.496       .  S
C426        C427   1.399       .  A
C426        H435   1.084       .  S
C427        C428   1.409       .  A
C427        H436   1.080       .  S
C428        C429   1.405       .  A
C428        C431   1.495       .  S
C429        C430   1.402       .  A
C429        H437   1.083       .  S
C430        H438   1.080       .  S
C431        H439   1.087       .  S
C431        C432   1.349       .  D
C432        H440   1.080       .  S
C433        H441   1.087       .  S
C433        C434   1.349       .  D
C434        H442   1.083       .  S
C443        C444   1.407       .  A
C443        C448   1.403       .  A
C443        C451   1.482       .  S
C444        C445   1.400       .  A
C444        H453   1.083       .  S
C445        C446   1.404       .  A
C445        H454   1.083       .  S
C446        C447   1.401       .  A
C446        C449   1.473       .  S
C447        C448   1.397       .  A
C447        H455   1.084       .  S
C448        H456   1.084       .  S
C449        H457   1.087       .  S
C449        C450   1.346       .  D
C450        H458   1.083       .  S
C451        H459   1.088       .  S
C451        C452   1.344       .  D
C452        H460   1.086       .  S
C461        C462   1.406       .  A
C461        C466   1.409       .  A
C461        C469   1.491       .  S
C462        C463   1.401   1_455  A
C462        H471   1.084       .  S
C463        C464   1.406       .  A
C463        H472   1.082       .  S
C464        C465   1.402   1_655  A
C464        C467   1.484       .  S
C465        C466   1.398       .  A
C465        H473   1.084       .  S
C466        H474   1.081       .  S
C467        H475   1.087       .  S
C467        C468   1.346       .  D
C468        H476   1.085       .  S
C469        H477   1.087       .  S
C469        C470   1.348       .  D
C470        H478   1.084       .  S
C479        C480   1.401       .  A
C479        C484   1.407       .  A
C479        C487   1.480       .  S
C480        C481   1.396       .  A
C480        H489   1.083       .  S
C481        C482   1.402       .  A
C481        H490   1.084       .  S
C482        C483   1.405       .  A
C482        C485   1.478   1_455  S
C483        C484   1.401       .  A
C483        H491   1.082   1_455  S
C484        H492   1.083       .  S
C485        H493   1.088       .  S
C485        C486   1.344       .  D
C486        H494   1.086       .  S
C487        H495   1.087       .  S
C487        C488   1.344       .  D
C488        H496   1.086       .  S
C497        C498   1.404       .  A
C497        C502   1.408       .  A
C497        C505   1.491       .  S
C498        C499   1.402       .  A
C498        H507   1.083       .  S
C499        C500   1.409       .  A
C499        H508   1.082       .  S
C500        C501   1.402       .  A
C500        C503   1.487       .  S
C501        C502   1.397       .  A
C501        H509   1.084       .  S
C502        H510   1.082       .  S
C503        H511   1.086       .  S
C503        C504   1.345       .  D
C504        H512   1.084       .  S
C505        H513   1.087       .  S
C505        C506   1.347       .  D
C506        H514   1.085       .  S
C515        C516   1.405       .  A
C515        C520   1.409       .  A
C515        C523   1.495       .  S
C516        C517   1.402       .  A
C516        H525   1.083       .  S
C517        C518   1.410       .  A
C517        H526   1.080       .  S
C518        C519   1.403       .  A
C518        C521   1.493       .  S
C519        C520   1.399       .  A
C519        H527   1.083       .  S
C520        H528   1.080       .  S
C521        H529   1.086       .  S
C521        C522   1.348       .  D
C522        H530   1.082       .  S
C523        H531   1.087       .  S
C523        C524   1.348       .  D
C524        H532   1.084       .  S
C533        C534   1.403   1_565  A
C533        C538   1.409       .  A
C533        C541   1.488       .  S
C534        C535   1.399       .  A
C534        H543   1.083       .  S
C535        C536   1.409       .  A
C535        H544   1.081       .  S
C536        C537   1.402       .  A
C536        C539   1.489       .  S
C537        C538   1.398   1_545  A
C537        H545   1.083       .  S
C538        H546   1.080       .  S
C539        H547   1.087       .  S
C539        C540   1.343       .  D
C540        H548   1.084       .  S
C541        H549   1.088       .  S
C541        C542   1.346       .  D
C542        H550   1.084       .  S
C551        C552   1.402       .  A
C551        C556   1.405       .  A
C551        C559   1.484       .  S
C552        C553   1.400       .  A
C552        H561   1.084       .  S
C553        C554   1.405   1_545  A
C553        H562   1.083       .  S
C554        C555   1.410       .  A
C554        C557   1.492       .  S
C555        C556   1.399   1_565  A
C555        H563   1.081       .  S
C556        H564   1.083       .  S
C557        H565   1.087       .  S
C557        C558   1.346       .  D
C558        H566   1.083       .  S
C559        H567   1.087       .  S
C559        C560   1.346       .  D
C560        H568   1.087       .  S
C569        C570   1.405       .  A
C569        C574   1.406       .  A
C569        C577   1.487       .  S
C570        C571   1.402       .  A
C570        H579   1.083       .  S
C571        C572   1.408       .  A
C571        H580   1.082       .  S
C572        C573   1.403       .  A
C572        C575   1.487       .  S
C573        C574   1.397       .  A
C573        H581   1.084       .  S
C574        H582   1.082       .  S
C575        H583   1.087       .  S
C575        C576   1.347       .  D
C576        H584   1.085       .  S
C577        H585   1.087       .  S
C577        C578   1.348       .  D
C578        H586   1.085       .  S
C587        C588   1.403       .  A
C587        C592   1.407       .  A
C587        C595   1.487       .  S
C588        C589   1.397       .  A
C588        H597   1.084       .  S
C589        C590   1.409       .  A
C589        H598   1.079       .  S
C590        C591   1.405       .  A
C590        C593   1.490       .  S
C591        C592   1.399       .  A
C591        H599   1.083       .  S
C592        H600   1.081       .  S
C593        H601   1.087       .  S
C593        C594   1.347       .  D
C594        H602   1.082       .  S
C595        H603   1.087       .  S
C595        C596   1.346       .  D
C596        H604   1.085       .  S
