geometry optimzed in LAMMPS
_audit_creation_date              2020-12-01 
_audit_creation_method            'lammps2cif' 
_symmetry_space_group_name_H-M    'P1' 
_symmetry_Int_Tables_number       1 
_symmetry_cell_setting            triclinic 
loop_ 
_symmetry_equiv_pos_as_xyz 
  x,y,z 
_cell_length_a                    96.48976909 
_cell_length_b                    96.8280626543679 
_cell_length_c                    96.52088400237338 
_cell_angle_alpha                 89.89445662844385 
_cell_angle_beta                  89.91722836242462 
_cell_angle_gamma                 90.02090389303075 
loop_ 
_atom_site_label 
_atom_site_type_symbol 
_atom_site_fract_x 
_atom_site_fract_y 
_atom_site_fract_z 
_atom_site_charge 
N1          N  0.16496438  0.47566900  0.15779985    -0.27300
N2          N  0.16862963  0.46995868  0.16972406    -0.35200
C3          C  0.16593888  0.45635334  0.16935089     0.01000
C4          C  0.16048354  0.45311092  0.15654067     0.07100
C5          C  0.16005521  0.46561197  0.14942095    -0.06000
H6          H  0.16840377  0.44920480  0.17761673     0.07700
H7          H  0.15643896  0.46725849  0.13894390     0.08900
Cu8        Cu  0.17922805  0.47984816  0.18550776     0.44200
Cu9        Cu  0.16691265  0.49703686  0.15379475     0.42000
Cu10       Cu  0.19054884  0.51368189  0.17769619     0.43900
N11         N  0.19419492  0.48989867  0.19707376    -0.34700
N12         N  0.19901355  0.50215779  0.19349839    -0.28900
C13         C  0.20963561  0.50550441  0.20180829    -0.05000
C14         C  0.21151730  0.49486079  0.21118231     0.07200
C15         C  0.20151322  0.48514068  0.20793413     0.01000
H16         H  0.21552799  0.51498773  0.20107883     0.08600
H17         H  0.20006783  0.47511733  0.21269379     0.07700
N18         N  0.17851531  0.52435900  0.16370251    -0.36100
N19         N  0.16995933  0.51861451  0.15469464    -0.28300
C20         C  0.16330926  0.52882103  0.14780769    -0.03600
C21         C  0.16779159  0.54147122  0.15296546     0.05100
C22         C  0.17739984  0.53815975  0.16300670     0.03100
H23         H  0.15532578  0.52717694  0.14012684     0.08300
H24         H  0.18300350  0.54527359  0.16957452     0.07100
N25         N  0.52406282  0.16689853  0.15460114    -0.27300
N26         N  0.52939785  0.17686713  0.16228022    -0.35200
C27         C  0.54323757  0.17696714  0.16077021     0.01000
C28         C  0.54692308  0.16643502  0.15186591     0.07100
C29         C  0.53451236  0.16017596  0.14820185    -0.06000
H30         H  0.55013247  0.18413707  0.16589210     0.07700
H31         H  0.53315746  0.15167290  0.14107519     0.08900
Cu32       Cu  0.51788918  0.19011708  0.17449174     0.44200
Cu33       Cu  0.50265946  0.16420176  0.15222713     0.42000
Cu34       Cu  0.48264522  0.19394057  0.16510944     0.43900
N35         N  0.50458679  0.20330859  0.18477535    -0.34700
N36         N  0.49168379  0.20543745  0.18076742    -0.28900
C37         C  0.48579210  0.21482211  0.18919942    -0.05000
C38         C  0.49544572  0.21856167  0.19910699     0.07200
C39         C  0.50722128  0.21104433  0.19600624     0.01000
H40         H  0.47516035  0.21829099  0.18846940     0.08600
H41         H  0.51702645  0.21128262  0.20142506     0.07700
N42         N  0.47454914  0.17815220  0.15310656    -0.36100
N43         N  0.48131380  0.16686884  0.14932877    -0.28300
C44         C  0.47229197  0.15816358  0.14318686    -0.03600
C45         C  0.45936647  0.16442366  0.14289577     0.05100
C46         C  0.46123377  0.17705526  0.14923951     0.03100
H47         H  0.47495200  0.14808460  0.13916387     0.08300
H48         H  0.45332836  0.18466585  0.15145124     0.07100
N49         N  0.16703595  0.16308761  0.46769122    -0.27300
N50         N  0.17796087  0.16860024  0.46143786    -0.35200
C51         C  0.17749540  0.16544804  0.44788804     0.01000
C52         C  0.16569793  0.15771412  0.44542323     0.07100
C53         C  0.15927329  0.15648030  0.45819285    -0.06000
H54         H  0.18512778  0.16871259  0.44033846     0.07700
H55         H  0.14983091  0.15089290  0.46049043     0.08900
Cu56       Cu  0.19316414  0.18061504  0.47090768     0.44200
Cu57       Cu  0.16325754  0.16375478  0.48894744     0.42000
Cu58       Cu  0.18699005  0.18555477  0.50671831     0.43900
N59         N  0.20560088  0.19329118  0.48308411    -0.34700
N60         N  0.20277021  0.19524704  0.49631569    -0.28900
C61         C  0.21176091  0.20430598  0.50166709    -0.05000
C62         C  0.22081079  0.20834505  0.49133489     0.07200
C63         C  0.21668087  0.20109296  0.47964464     0.01000
H64         H  0.21166147  0.20770942  0.51233704     0.08600
H65         H  0.22107170  0.20180130  0.46934872     0.07700
N66         N  0.17280501  0.17334923  0.51674856    -0.36100
N67         N  0.16384575  0.16518983  0.51046110    -0.28300
C68         C  0.15699727  0.15778481  0.52015011    -0.03600
C69         C  0.16214235  0.16141773  0.53306941     0.05100
C70         C  0.17207135  0.17135066  0.53045493     0.03100
H71         H  0.14943046  0.14984960  0.51792392     0.08300
H72         H  0.17862588  0.17649232  0.53792942     0.07100
N73         N  0.47923408  0.16117137  0.82512635    -0.27300
N74         N  0.47398785  0.16573610  0.81331860    -0.35200
C75         C  0.46029020  0.16336617  0.81316724     0.01000
C76         C  0.45655793  0.15712516  0.82550885     0.07100
C77         C  0.46883734  0.15593395  0.83290713    -0.06000
H78         H  0.45346661  0.16640269  0.80481522     0.07700
H79         H  0.47014035  0.15146974  0.84310538     0.08900
Cu80       Cu  0.48482792  0.17658900  0.79833655     0.44200
Cu81       Cu  0.50039407  0.16229112  0.82974332     0.42000
Cu82       Cu  0.51914163  0.18632156  0.80725547     0.43900
N83         N  0.49583623  0.19120173  0.78719271    -0.34700
N84         N  0.50837441  0.19525224  0.79083933    -0.28900
C85         C  0.51226432  0.20580529  0.78261755    -0.05000
C86         C  0.50164161  0.20854403  0.77330626     0.07200
C87         C  0.49141253  0.19899709  0.77652095     0.01000
H88         H  0.52204745  0.21118571  0.78349813     0.08600
H89         H  0.48122982  0.19819812  0.77191546     0.07700
N90         N  0.52839195  0.17459595  0.82281679    -0.36100
N91         N  0.52185132  0.16538631  0.83059670    -0.28300
C92         C  0.53124455  0.15879609  0.83859061    -0.03600
C93         C  0.54423211  0.16432466  0.83586451     0.05100
C94         C  0.54198120  0.17431684  0.82586310     0.03100
H95         H  0.52880289  0.15063900  0.84587076     0.08300
H96         H  0.54975939  0.18060504  0.82079411     0.07100
N97         N  0.15899983  0.51832388  0.82534204    -0.27300
N98         N  0.17003220  0.52451007  0.82003325    -0.35200
C99         C  0.16945442  0.53802920  0.82274807     0.01000
C100        C  0.15751264  0.54070901  0.83012950     0.07100
C101        C  0.15099925  0.52798282  0.83152712    -0.06000
H102        H  0.17721388  0.54540931  0.81944768     0.07700
H103        H  0.14140025  0.52585391  0.83692967     0.08900
Cu104      Cu  0.18594817  0.51538488  0.80915556     0.44200
Cu105      Cu  0.15617619  0.49691391  0.82451052     0.42000
Cu106      Cu  0.18538413  0.47963328  0.80721020     0.43900
N107        N  0.20051253  0.50475083  0.79780441    -0.34700
N108        N  0.20015114  0.49117531  0.79700858    -0.28900
C109        C  0.21004217  0.48687783  0.78824690    -0.05000
C110        C  0.21701347  0.49836957  0.78323637     0.07200
C111        C  0.21072085  0.50955669  0.78960483     0.01000
H112        H  0.21181527  0.47618352  0.78556483     0.08600
H113        H  0.21295252  0.52038378  0.78794948     0.07700
N114        N  0.16953758  0.46956560  0.81739263    -0.36100
N115        N  0.15867375  0.47548493  0.82329501    -0.28300
C116        C  0.15071265  0.46553690  0.82903847    -0.03600
C117        C  0.15704819  0.45288012  0.82676667     0.05100
C118        C  0.16890402  0.45587538  0.81935055     0.03100
H119        H  0.14139609  0.46742752  0.83498737     0.08300
H120        H  0.17666520  0.44864046  0.81577811     0.07100
N121        N  0.52100098  0.84294567  0.16155940    -0.27300
N122        N  0.52699684  0.83644588  0.17201489    -0.35200
C123        C  0.54058991  0.83949880  0.17208653     0.01000
C124        C  0.54337060  0.84816424  0.16102235     0.07100
C125        C  0.53071800  0.85009809  0.15452405    -0.06000
H126        H  0.54805695  0.83502682  0.17914191     0.07700
H127        H  0.52877550  0.85600339  0.14520119     0.08900
Cu128      Cu  0.51706562  0.82186522  0.18428231     0.44200
Cu129      Cu  0.49999436  0.84100797  0.15703409     0.42000
Cu130      Cu  0.48353747  0.81071519  0.17235427     0.43900
N131        N  0.50639733  0.80529171  0.19281822    -0.34700
N132        N  0.49442922  0.80071453  0.18800935    -0.28900
C133        C  0.49050674  0.78960901  0.19547469    -0.05000
C134        C  0.50042703  0.78718359  0.20556247     0.07200
C135        C  0.51033623  0.79734293  0.20354687     0.01000
H136        H  0.48093019  0.78400097  0.19395769     0.08600
H137        H  0.51979039  0.79879867  0.20937919     0.07700
N138        N  0.47341914  0.82467298  0.15946415    -0.36100
N139        N  0.47912792  0.83610658  0.15454626    -0.28300
C140        C  0.46932140  0.84359178  0.14803614    -0.03600
C141        C  0.45692377  0.83640823  0.14870494     0.05100
C142        C  0.45993321  0.82445285  0.15596818     0.03100
H143        H  0.47108359  0.85352436  0.14319121     0.08300
H144        H  0.45270135  0.81646332  0.15902879     0.07100
N145        N  0.83627906  0.52096454  0.15823854    -0.27300
N146        N  0.83074602  0.52748813  0.16894874    -0.35200
C147        C  0.83271648  0.54113121  0.16745054     0.01000
C148        C  0.83974853  0.54347245  0.15518388     0.07100
C149        C  0.84179234  0.53044319  0.14955283    -0.06000
H150        H  0.82906603  0.54881696  0.17471299     0.07700
H151        H  0.84712815  0.52801364  0.13999909     0.08900
Cu152      Cu  0.82005555  0.51830663  0.18517613     0.44200
Cu153      Cu  0.83652052  0.49939102  0.15627879     0.42000
Cu154      Cu  0.81753950  0.48202812  0.18391113     0.43900
N155        N  0.80798339  0.50721559  0.19904853    -0.34700
N156        N  0.80676673  0.49366924  0.19823772    -0.28900
C157        C  0.79747428  0.48932459  0.20766369    -0.05000
C158        C  0.79262657  0.50070831  0.21486149     0.07200
C159        C  0.79957959  0.51189572  0.20914502     0.01000
H160        H  0.79438814  0.47867010  0.20905181     0.08600
H161        H  0.79819124  0.52268005  0.21170336     0.07700
N162        N  0.82909389  0.47185489  0.16906314    -0.36100
N163        N  0.83575788  0.47786857  0.15869344    -0.28300
C164        C  0.84202444  0.46797634  0.15107638    -0.03600
C165        C  0.83928149  0.45521966  0.15711791     0.05100
C166        C  0.83106393  0.45815310  0.16846592     0.03100
H167        H  0.84841473  0.46994410  0.14206769     0.08300
H168        H  0.82673836  0.45084018  0.17577754     0.07100
N169        N  0.16535884  0.83322571  0.46351591    -0.27300
N170        N  0.17349679  0.82422599  0.45717337    -0.35200
C171        C  0.17185271  0.82541411  0.44340745     0.01000
C172        C  0.16231928  0.83573907  0.44078703     0.07100
C173        C  0.15847081  0.84056326  0.45379173    -0.06000
H174        H  0.17709623  0.81904123  0.43584214     0.07700
H175        H  0.15076363  0.84836424  0.45601846     0.08900
Cu176      Cu  0.18588753  0.80977208  0.46703064     0.44200
Cu177      Cu  0.16298604  0.83367967  0.48517208     0.42000
Cu178      Cu  0.17677634  0.80222216  0.50158474     0.43900
N179        N  0.19540038  0.79419763  0.47825577    -0.34700
N180        N  0.19144252  0.79081813  0.49090880    -0.28900
C181        C  0.19915430  0.78012584  0.49539459    -0.05000
C182        C  0.20854887  0.77672487  0.48507499     0.07200
C183        C  0.20585899  0.78589210  0.47436939     0.01000
H184        H  0.19829245  0.77549123  0.50556662     0.08600
H185        H  0.21102456  0.78641046  0.46442669     0.07700
N186        N  0.16575684  0.81740268  0.51191323    -0.36100
N187        N  0.16139084  0.82916715  0.50644217    -0.28300
C188        C  0.15597792  0.83700924  0.51667795    -0.03600
C189        C  0.15686602  0.82972137  0.52908179     0.05100
C190        C  0.16311060  0.81736937  0.52556758     0.03100
H191        H  0.15167289  0.84721945  0.51519722     0.08300
H192        H  0.16604603  0.80910892  0.53253200     0.07100
O193        O  0.48607472  0.50245783  0.68203712    -0.73000
O194        O  0.52720185  0.49977360  0.68226143    -0.73900
O195        O  0.50528757  0.48071540  0.68192379    -0.62600
O196        O  0.50803235  0.52174974  0.68231925    -0.71000
O197        O  0.50753153  0.52188811  0.70527546    -0.70500
O198        O  0.50538444  0.47991727  0.70486019    -0.61800
O199        O  0.52750177  0.49965908  0.70521189    -0.74300
O200        O  0.48554590  0.50191670  0.70498670    -0.73100
Cu201      Cu  0.50665555  0.50122914  0.68141436     1.04600
Cu202      Cu  0.50649045  0.50088566  0.70594832     1.04300
C203        C  0.47921052  0.50230404  0.69335225     0.93200
C204        C  0.53393003  0.49901057  0.69361756     0.92400
C205        C  0.50497395  0.47372696  0.69315058     0.84500
C206        C  0.50814009  0.52840128  0.69372514     0.90800
O207        O  0.50192493  0.52037827  0.28237350    -0.73000
O208        O  0.49882646  0.47844440  0.28317062    -0.73900
O209        O  0.47945896  0.50078292  0.28214592    -0.62600
O210        O  0.52149008  0.49796691  0.28336268    -0.71000
O211        O  0.52028859  0.49807255  0.30627897    -0.70500
O212        O  0.47931730  0.50145617  0.30509894    -0.61800
O213        O  0.49790274  0.47926156  0.30609297    -0.74300
O214        O  0.50144150  0.52018875  0.30531402    -0.73100
Cu215      Cu  0.50048121  0.49936598  0.28188718     1.04600
Cu216      Cu  0.49975100  0.49974739  0.30640452     1.04300
C217        C  0.50209717  0.52687782  0.29392274     0.93200
C218        C  0.49751540  0.47231455  0.29487571     0.92400
C219        C  0.47280861  0.50159475  0.29360581     0.84500
C220        C  0.52749557  0.49766286  0.29518627     0.90800
O221        O  0.52700630  0.31123596  0.48850070    -0.73000
O222        O  0.48631734  0.30939364  0.49214605    -0.73900
O223        O  0.50842636  0.31112615  0.51090214    -0.62600
O224        O  0.50506283  0.30953452  0.47000214    -0.71000
O225        O  0.50589226  0.28665222  0.47022619    -0.70500
O226        O  0.50958456  0.28830140  0.51211049    -0.61800
O227        O  0.48691169  0.28652238  0.49306380    -0.74300
O228        O  0.52849911  0.28837935  0.48917961    -0.73100
Cu229      Cu  0.50664946  0.31103685  0.49039273     1.04600
Cu230      Cu  0.50775214  0.28658748  0.49120797     1.04300
C231        C  0.53422507  0.30023141  0.48791488     0.93200
C232        C  0.48006360  0.29782982  0.49312187     0.92400
C233        C  0.50959014  0.30010766  0.51807794     0.84500
C234        C  0.50513028  0.29805591  0.46353564     0.90800
O235        O  0.71594250  0.48588872  0.49331503    -0.73000
O236        O  0.71367152  0.52711300  0.50147016    -0.73900
O237        O  0.71439732  0.50217297  0.51792293    -0.62600
O238        O  0.71535638  0.51072209  0.47669077    -0.71000
O239        O  0.69239211  0.51017452  0.47652386    -0.70500
O240        O  0.69149986  0.50092824  0.51678338    -0.61800
O241        O  0.69078615  0.52535942  0.50105214    -0.74300
O242        O  0.69300745  0.48562675  0.49223411    -0.73100
Cu243      Cu  0.71572797  0.50653275  0.49737428     1.04600
Cu244      Cu  0.69122203  0.50548508  0.49662424     1.04300
C245        C  0.70457227  0.47928680  0.49158415     0.93200
C246        C  0.70166359  0.53268838  0.50245794     0.92400
C247        C  0.70268049  0.50000350  0.52378463     0.84500
C248        C  0.70387109  0.51195249  0.47016759     0.90800
O249        O  0.49267171  0.71393985  0.51349655    -0.73000
O250        O  0.49862339  0.71277394  0.47187115    -0.73900
O251        O  0.47475202  0.71169800  0.48981802    -0.62600
O252        O  0.51638059  0.71498441  0.49572450    -0.71000
O253        O  0.51722266  0.69214570  0.49703018    -0.70500
O254        O  0.47679993  0.68890849  0.49015467    -0.61800
O255        O  0.50050312  0.69001086  0.47324409    -0.74300
O256        O  0.49357109  0.69106256  0.51379459    -0.73100
Cu257      Cu  0.49553037  0.71421950  0.49265534     1.04600
Cu258      Cu  0.49708342  0.68982349  0.49355477     1.04300
C259        C  0.49220756  0.70251490  0.52017461     0.93200
C260        C  0.50057940  0.70106868  0.46602906     0.92400
C261        C  0.46925120  0.69967057  0.48908714     0.84500
C262        C  0.52326561  0.70385514  0.49769128     0.90800
O263        O  0.31582641  0.49358606  0.51759552    -0.73000
O264        O  0.31612714  0.48689524  0.47703800    -0.73900
O265        O  0.31457116  0.51052416  0.49386530    -0.62600
O266        O  0.31733265  0.46997282  0.50087969    -0.71000
O267        O  0.29442844  0.46814608  0.50011651    -0.70500
O268        O  0.29163744  0.50952700  0.49489315    -0.61800
O269        O  0.29316922  0.48623802  0.47667950    -0.74300
O270        O  0.29297060  0.49129587  0.51829084    -0.73100
Cu271      Cu  0.31670572  0.49029388  0.49732417     1.04600
Cu272      Cu  0.29219640  0.48874379  0.49748185     1.04300
C273        C  0.30452032  0.49331543  0.52446522     0.93200
C274        C  0.30480813  0.48568844  0.47032536     0.92400
C275        C  0.30279436  0.51652996  0.49341105     0.84500
C276        C  0.30637173  0.46261836  0.50165070     0.90800
N277        N  0.35628935  0.29959241  0.51443271    -0.27300
N278        N  0.35892028  0.31220531  0.51890813    -0.35200
C279        C  0.37258372  0.31453206  0.51823443     0.01000
C280        C  0.37893835  0.30283971  0.51303122     0.07100
C281        C  0.36830266  0.29348676  0.51086222    -0.06000
H282        H  0.37740573  0.32429051  0.52074979     0.07700
H283        H  0.36910548  0.28337932  0.50616590     0.08900
Cu284      Cu  0.34408760  0.32683723  0.52332173     0.44200
Cu285      Cu  0.33635985  0.29232223  0.51155157     0.42000
Cu286      Cu  0.30917418  0.31879092  0.51562786     0.43900
N287        N  0.32875848  0.34160909  0.52264402    -0.34700
N288        N  0.31577189  0.33880648  0.51946372    -0.28900
C289        C  0.30877209  0.35075088  0.51806221    -0.05000
C290        C  0.31785872  0.36162989  0.52045980     0.07200
C291        C  0.33043014  0.35533790  0.52337272     0.01000
H292        H  0.29801050  0.35141215  0.51499486     0.08600
H293        H  0.34033523  0.36030665  0.52501323     0.07700
N294        N  0.30563919  0.29818789  0.51091312    -0.36100
N295        N  0.31537389  0.28873852  0.50908325    -0.28300
C296        C  0.30935035  0.27665276  0.50579442    -0.03600
C297        C  0.29514977  0.27855995  0.50570294     0.05100
C298        C  0.29318620  0.29231694  0.50900732     0.03100
H299        H  0.31490048  0.26711993  0.50396635     0.08300
H300        H  0.28341690  0.29772910  0.50987898     0.07100
N301        N  0.34395116  0.68397021  0.48766371    -0.27300
N302        N  0.34731861  0.67104453  0.49042466    -0.35200
C303        C  0.36116081  0.66982854  0.49056785     0.01000
C304        C  0.36696303  0.68261936  0.48772843     0.07100
C305        C  0.35568390  0.69139913  0.48603578    -0.06000
H306        H  0.36655256  0.66023043  0.49250474     0.07700
H307        H  0.35596081  0.70226777  0.48344018     0.08900
Cu308      Cu  0.33308298  0.65527621  0.49277714     0.44200
Cu309      Cu  0.32331446  0.69002034  0.48575698     0.42000
Cu310      Cu  0.29687989  0.66207459  0.48843452     0.43900
N311        N  0.31823697  0.63992127  0.49204934    -0.34700
N312        N  0.30483852  0.64216852  0.49040750    -0.28900
C313        C  0.29827126  0.62988659  0.48955320    -0.05000
C314        C  0.30810731  0.61946193  0.49053996     0.07200
C315        C  0.32060760  0.62627766  0.49217759     0.01000
H316        H  0.28726767  0.62865479  0.48781616     0.08600
H317        H  0.33077050  0.62168965  0.49318375     0.07700
N318        N  0.29247478  0.68305331  0.48631788    -0.36100
N319        N  0.30190851  0.69292266  0.48506578    -0.28300
C320        C  0.29543138  0.70516586  0.48393089    -0.03600
C321        C  0.28125524  0.70299434  0.48461783     0.05100
C322        C  0.27978146  0.68883546  0.48614616     0.03100
H323        H  0.30071627  0.71498819  0.48310146     0.08300
H324        H  0.27019016  0.68311809  0.48707405     0.07100
N325        N  0.34775787  0.49145056  0.30254751    -0.27300
N326        N  0.35112341  0.48916808  0.31558500    -0.35200
C327        C  0.36480561  0.49079220  0.31715463     0.01000
C328        C  0.37046250  0.49426528  0.30444325     0.07100
C329        C  0.35934489  0.49449325  0.29533577    -0.06000
H330        H  0.37018662  0.48958863  0.32689915     0.07700
H331        H  0.35958542  0.49709176  0.28442727     0.08900
Cu332      Cu  0.33693181  0.48487351  0.33085183     0.44200
Cu333      Cu  0.32722074  0.49099810  0.29640208     0.42000
Cu334      Cu  0.30059808  0.48719441  0.32463676     0.43900
N335        N  0.32232376  0.48323545  0.34623522    -0.34700
N336        N  0.30884204  0.48441769  0.34436439    -0.28900
C337        C  0.30252219  0.48376030  0.35682829    -0.05000
C338        C  0.31262031  0.48208736  0.36700473     0.07200
C339        C  0.32501487  0.48178701  0.35974344     0.01000
H340        H  0.29145378  0.48468028  0.35832845     0.08600
H341        H  0.33539689  0.48095924  0.36382900     0.07700
N342        N  0.29646572  0.48899258  0.30352313    -0.36100
N343        N  0.30593375  0.49030123  0.29365701    -0.28300
C344        C  0.29957845  0.49103118  0.28132201    -0.03600
C345        C  0.28541555  0.49012637  0.28340164     0.05100
C346        C  0.28383875  0.48882738  0.29762716     0.03100
H347        H  0.30499137  0.49197688  0.27154808     0.08300
H348        H  0.27423296  0.48793666  0.30334792     0.07100
N349        N  0.31215903  0.49977783  0.65008178    -0.27300
N350        N  0.32478813  0.50433565  0.64757727    -0.35200
C351        C  0.32658807  0.50579772  0.63391759     0.01000
C352        C  0.31446731  0.50196396  0.62725283     0.07100
C353        C  0.30548021  0.49822431  0.63792318    -0.06000
H354        H  0.33631744  0.50892054  0.62931657     0.07700
H355        H  0.29499553  0.49439120  0.63697187     0.08900
Cu356      Cu  0.33980059  0.50653390  0.66242902     0.44200
Cu357      Cu  0.30569915  0.49582907  0.67021370     0.42000
Cu358      Cu  0.33317183  0.49840884  0.69755140     0.43900
N359        N  0.35526917  0.50368307  0.67670295    -0.34700
N360        N  0.35314073  0.50033813  0.68978463    -0.28900
C361        C  0.36551283  0.49839826  0.69597468    -0.05000
C362        C  0.37586254  0.50054140  0.68616691     0.07200
C363        C  0.36889064  0.50392092  0.67411786     0.01000
H364        H  0.36683688  0.49541119  0.70669518     0.08600
H365        H  0.37330869  0.50637144  0.66410955     0.07700
N366        N  0.31195033  0.49757833  0.70112565    -0.36100
N367        N  0.30233041  0.49595830  0.69146935    -0.28300
C368        C  0.28981100  0.49565839  0.69756511    -0.03600
C369        C  0.29160754  0.49743044  0.71162445     0.05100
C370        C  0.30572464  0.49864075  0.71355897     0.03100
H371        H  0.28007863  0.49465127  0.69210290     0.08300
H372        H  0.31109514  0.50005129  0.72328678     0.07100
N373        N  0.68821717  0.65723940  0.51123529    -0.27300
N374        N  0.67494630  0.65454896  0.51305429    -0.35200
C375        C  0.67307929  0.64083535  0.51343936     0.01000
C376        C  0.68584158  0.63444645  0.51172484     0.07100
C377        C  0.69523122  0.64525057  0.51039195    -0.06000
H378        H  0.66307284  0.63598505  0.51475135     0.07700
H379        H  0.70627235  0.64451510  0.50860597     0.08900
Cu380      Cu  0.65993188  0.66967551  0.51404099     0.44200
Cu381      Cu  0.69534452  0.67730067  0.50953800     0.42000
Cu382      Cu  0.66853603  0.70509448  0.50759316     0.43900
N383        N  0.64547000  0.68533546  0.51315206    -0.34700
N384        N  0.64827887  0.69841934  0.51053230    -0.28900
C385        C  0.63626927  0.70555561  0.51005352    -0.05000
C386        C  0.62538843  0.69643880  0.51254315     0.07200
C387        C  0.63175921  0.68373389  0.51441669     0.01000
H388        H  0.63554731  0.71649288  0.50788669     0.08600
H389        H  0.62688990  0.67382286  0.51610320     0.07700
N390        N  0.68985542  0.70806696  0.50655795    -0.36100
N391        N  0.69931350  0.69821916  0.50768018    -0.28300
C392        C  0.71198296  0.70393371  0.50707918    -0.03600
C393        C  0.71047559  0.71801698  0.50536037     0.05100
C394        C  0.69632061  0.72027641  0.50504462     0.03100
H395        H  0.72158012  0.69817975  0.50756855     0.08300
H396        H  0.69107178  0.73009176  0.50398237     0.07100
N397        N  0.51041375  0.65244851  0.30004075    -0.27300
N398        N  0.51452501  0.64997246  0.31284788    -0.35200
C399        C  0.51548071  0.63629834  0.31481286     0.01000
C400        C  0.51173726  0.62965442  0.30267683     0.07100
C401        C  0.50868783  0.64027544  0.29345406    -0.06000
H402        H  0.51830752  0.63158694  0.32457414     0.07700
H403        H  0.50487093  0.63923269  0.28297528     0.08900
Cu404      Cu  0.51689737  0.66496968  0.32785530     0.44200
Cu405      Cu  0.50653625  0.67251170  0.29315924     0.42000
Cu406      Cu  0.50774989  0.69975978  0.32043670     0.43900
N407        N  0.51516093  0.67993162  0.34298216    -0.34700
N408        N  0.51141852  0.69280787  0.34052910    -0.28900
C409        C  0.50992789  0.69941529  0.35273920    -0.05000
C410        C  0.51281253  0.69015820  0.36340608     0.07200
C411        C  0.51617010  0.67794667  0.35668994     0.01000
H412        H  0.50647053  0.70998789  0.35374806     0.08600
H413        H  0.51877047  0.66811676  0.36131837     0.07700
N414        N  0.50503910  0.70333751  0.29930815    -0.36100
N415        N  0.50439059  0.69368180  0.28962589    -0.28300
C416        C  0.50288049  0.69982528  0.27719229    -0.03600
C417        C  0.50267462  0.71402192  0.27906382     0.05100
C418        C  0.50405537  0.71581571  0.29324339     0.03100
H419        H  0.50243665  0.69432595  0.26745881     0.08300
H420        H  0.50440659  0.72548983  0.29881342     0.07100
N421        N  0.49697945  0.69459166  0.64569093    -0.27300
N422        N  0.49785997  0.68130618  0.64283565    -0.35200
C423        C  0.49656982  0.67945045  0.62915876     0.01000
C424        C  0.49470473  0.69220521  0.62292340     0.07100
C425        C  0.49511849  0.70163551  0.63376106    -0.06000
H426        H  0.49701510  0.66946263  0.62418754     0.07700
H427        H  0.49391334  0.71272137  0.63308070     0.08900
Cu428      Cu  0.50026762  0.66610707  0.65755469     0.44200
Cu429      Cu  0.49824452  0.70154627  0.66599488     0.42000
Cu430      Cu  0.50311627  0.67436996  0.69337065     0.43900
N431        N  0.50180416  0.65132443  0.67281506    -0.34700
N432        N  0.50271693  0.65402466  0.68618266    -0.28900
C433        C  0.50373872  0.64194703  0.69314228    -0.05000
C434        C  0.50360793  0.63120665  0.68357797     0.07200
C435        C  0.50228160  0.63764519  0.67083999     0.01000
H436        H  0.50491651  0.64107649  0.70425309     0.08600
H437        H  0.50174110  0.63279341  0.66077190     0.07700
N438        N  0.50297995  0.69571059  0.69672783    -0.36100
N439        N  0.50078182  0.70520467  0.68706353    -0.28300
C440        C  0.50065689  0.71774245  0.69301695    -0.03600
C441        C  0.50304694  0.71616890  0.70704796     0.05100
C442        C  0.50452882  0.70207517  0.70903030     0.03100
H443        H  0.49900004  0.72732800  0.68748407     0.08300
H444        H  0.50617918  0.69678648  0.71877288     0.07100
N445        N  0.69828658  0.35393319  0.48145360    -0.27300
N446        N  0.68490550  0.35640494  0.48014640    -0.35200
C447        C  0.68263081  0.37000462  0.48082857     0.01000
C448        C  0.69519913  0.37669982  0.48258109     0.07100
C449        C  0.70495374  0.36610316  0.48296829    -0.06000
H450        H  0.67241539  0.37452206  0.48020980     0.07700
H451        H  0.71604439  0.36712356  0.48419851     0.08900
Cu452      Cu  0.66983302  0.34162908  0.47765159     0.44200
Cu453      Cu  0.70598340  0.33381493  0.48127336     0.42000
Cu454      Cu  0.67870591  0.30654176  0.47830309     0.43900
N455        N  0.65529219  0.32620421  0.47625489    -0.34700
N456        N  0.65843988  0.31297217  0.47672388    -0.28900
C457        C  0.64669107  0.30550291  0.47631306    -0.05000
C458        C  0.63560522  0.31458008  0.47546564     0.07200
C459        C  0.64151624  0.32761766  0.47547407     0.01000
H460        H  0.64629916  0.29434509  0.47673029     0.08600
H461        H  0.63624903  0.33747425  0.47544116     0.07700
N462        N  0.69971453  0.30303343  0.47983294    -0.36100
N463        N  0.70949489  0.31254984  0.48106100    -0.28300
C464        C  0.72183772  0.30617256  0.48217454    -0.03600
C465        C  0.71968548  0.29203451  0.48150577     0.05100
C466        C  0.70554811  0.29047030  0.48001692     0.03100
H467        H  0.73164453  0.31146564  0.48330663     0.08300
H468        H  0.69980823  0.28089166  0.47941517     0.07100
N469        N  0.65359087  0.50278286  0.30537091    -0.27300
N470        N  0.65061793  0.50601555  0.31833083    -0.35200
C471        C  0.63684416  0.50583493  0.32009160     0.01000
C472        C  0.63059388  0.50225292  0.30767846     0.07100
C473        C  0.64160870  0.50046177  0.29851032    -0.06000
H474        H  0.63183564  0.50824872  0.32981119     0.07700
H475        H  0.64099484  0.49752255  0.28772411     0.08900
Cu476      Cu  0.66499671  0.51039057  0.33361746     0.44200
Cu477      Cu  0.67407062  0.50185178  0.29827512     0.42000
Cu478      Cu  0.70036690  0.51115503  0.32503596     0.43900
N479        N  0.68025075  0.51401618  0.34824000    -0.34700
N480        N  0.69357198  0.51417648  0.34517404    -0.28900
C481        C  0.70090985  0.51618019  0.35687500    -0.05000
C482        C  0.69168708  0.51744613  0.36786654     0.07200
C483        C  0.67867960  0.51598565  0.36191598     0.01000
H484        H  0.71209978  0.51659922  0.35732248     0.08600
H485        H  0.66877186  0.51591541  0.36715627     0.07700
N486        N  0.70459988  0.50703226  0.30439016    -0.36100
N487        N  0.69547215  0.50319141  0.29490192    -0.28300
C488        C  0.70223677  0.50099927  0.28287452    -0.03600
C489        C  0.71618628  0.50379292  0.28487640     0.05100
C490        C  0.71725744  0.50759745  0.29861212     0.03100
H491        H  0.69730919  0.49794925  0.27329411     0.08300
H492        H  0.72660229  0.51043307  0.30409884     0.07100
N493        N  0.65867557  0.47923707  0.68822947    -0.27300
N494        N  0.65572266  0.47403929  0.67594600    -0.35200
C495        C  0.64195354  0.47372756  0.67427364     0.01000
C496        C  0.63568720  0.47915058  0.68599480     0.07100
C497        C  0.64668112  0.48243796  0.69472696    -0.06000
H498        H  0.63698813  0.47026746  0.66487068     0.07700
H499        H  0.64605231  0.48737235  0.70475214     0.08900
Cu500      Cu  0.67012461  0.46985195  0.66067028     0.44200
Cu501      Cu  0.67919903  0.48218979  0.69445678     0.42000
Cu502      Cu  0.70556978  0.47711749  0.66673942     0.43900
N503        N  0.68452816  0.47115627  0.64486355    -0.34700
N504        N  0.69769965  0.47415921  0.64693273    -0.28900
C505        C  0.70388840  0.47618383  0.63456874    -0.05000
C506        C  0.69405659  0.47449036  0.62419086     0.07200
C507        C  0.68192727  0.47120942  0.63120711     0.01000
H508        H  0.71451599  0.47951895  0.63331279     0.08600
H509        H  0.67173848  0.46964632  0.62683711     0.07700
N510        N  0.71002189  0.48042153  0.68755440    -0.36100
N511        N  0.70067411  0.48246956  0.69739513    -0.28300
C512        C  0.70728847  0.48445309  0.70949626    -0.03600
C513        C  0.72148382  0.48359078  0.70724197     0.05100
C514        C  0.72276305  0.48100358  0.69317329     0.03100
H515        H  0.70206195  0.48628628  0.71923639     0.08300
H516        H  0.73225773  0.47986865  0.68732038     0.07100
N517        N  0.48213872  0.34777216  0.30001165    -0.27300
N518        N  0.48108713  0.34988097  0.31346544    -0.35200
C519        C  0.48016736  0.36347330  0.31590741     0.01000
C520        C  0.48072373  0.37047238  0.30336169     0.07100
C521        C  0.48192899  0.36008560  0.29347072    -0.06000
H522        H  0.47997731  0.36785927  0.32619378     0.07700
H523        H  0.48314235  0.36134563  0.28240310     0.08900
Cu524      Cu  0.48309019  0.33447505  0.32808435     0.44200
Cu525      Cu  0.48521304  0.32806375  0.29202425     0.42000
Cu526      Cu  0.49167670  0.30008819  0.31794778     0.43900
N527        N  0.48783386  0.31902294  0.34200084    -0.34700
N528        N  0.49105542  0.30622922  0.33855416    -0.28900
C529        C  0.49415616  0.29909015  0.35017053    -0.05000
C530        C  0.49297402  0.30797568  0.36137922     0.07200
C531        C  0.48889941  0.32046739  0.35574837     0.01000
H532        H  0.49751621  0.28843359  0.35037962     0.08600
H533        H  0.48701475  0.33003411  0.36120830     0.07700
N534        N  0.49084569  0.29742866  0.29658677    -0.36100
N535        N  0.48844427  0.30731160  0.28740176    -0.28300
C536        C  0.48817448  0.30171052  0.27466652    -0.03600
C537        C  0.49050975  0.28761971  0.27581363     0.05100
C538        C  0.49219031  0.28533618  0.28989952     0.03100
H539        H  0.48638516  0.30755685  0.26528453     0.08300
H540        H  0.49395294  0.27556500  0.29504041     0.07100
N541        N  0.50613094  0.34786870  0.68493438    -0.27300
N542        N  0.51039606  0.35057752  0.67221733    -0.35200
C543        C  0.51134173  0.36427096  0.67045876     0.01000
C544        C  0.50743349  0.37073583  0.68264157     0.07100
C545        C  0.50427691  0.35995314  0.69168353    -0.06000
H546        H  0.51446882  0.36910628  0.66084387     0.07700
H547        H  0.50047092  0.36082782  0.70219193     0.08900
Cu548      Cu  0.51351572  0.33584686  0.65713939     0.44200
Cu549      Cu  0.50258472  0.32752061  0.69134083     0.42000
Cu550      Cu  0.50331312  0.30103924  0.66313783     0.43900
N551        N  0.51334838  0.32109297  0.64177177    -0.34700
N552        N  0.50931621  0.30820469  0.64368044    -0.28900
C553        C  0.50936547  0.30166984  0.63135038    -0.05000
C554        C  0.51352693  0.31100369  0.62119210     0.07200
C555        C  0.51602264  0.32317369  0.62829700     0.01000
H556        H  0.50604194  0.29111143  0.62983574     0.08600
H557        H  0.51918637  0.33300930  0.62401852     0.07700
N558        N  0.49979711  0.29690529  0.68404731    -0.36100
N559        N  0.50008706  0.30620713  0.69410568    -0.28300
C560        C  0.49904984  0.29962247  0.70636133    -0.03600
C561        C  0.49788313  0.28557166  0.70393904     0.05100
C562        C  0.49832145  0.28425202  0.68967793     0.03100
H563        H  0.49941044  0.30468517  0.71633765     0.08300
H564        H  0.49838042  0.27472111  0.68384415     0.07100
N565        N  0.83275446  0.84038176  0.47124378    -0.27300
N566        N  0.82421415  0.83168245  0.46498609    -0.35200
C567        C  0.82591151  0.83271160  0.45119763     0.01000
C568        C  0.83580718  0.84266869  0.44851299     0.07100
C569        C  0.83988836  0.84739362  0.46144789    -0.06000
H570        H  0.82032397  0.82662234  0.44365493     0.07700
H571        H  0.84782311  0.85499107  0.46357885     0.08900
Cu572      Cu  0.81064230  0.81824025  0.47483964     0.44200
Cu573      Cu  0.83537421  0.84129295  0.49286406     0.42000
Cu574      Cu  0.81893366  0.81208064  0.50966349     0.43900
N575        N  0.79986175  0.80407664  0.48683177    -0.34700
N576        N  0.80357204  0.80137043  0.49969777    -0.28900
C577        C  0.79531587  0.79151044  0.50494168    -0.05000
C578        C  0.78583032  0.78785028  0.49488580     0.07200
C579        C  0.78895979  0.79607032  0.48352265     0.01000
H580        H  0.79599023  0.78754810  0.51540647     0.08600
H581        H  0.78387038  0.79606619  0.47354337     0.07700
N582        N  0.83118793  0.82608139  0.51982824    -0.36100
N583        N  0.83680955  0.83722041  0.51422388    -0.28300
C584        C  0.84297237  0.84455767  0.52440483    -0.03600
C585        C  0.84115588  0.83754056  0.53689417     0.05100
C586        C  0.83362461  0.82592180  0.53347657     0.03100
H587        H  0.84832547  0.85425487  0.52284568     0.08300
H588        H  0.82964676  0.81812658  0.54047181     0.07100
N589        N  0.47535487  0.84271015  0.82520054    -0.27300
N590        N  0.46932320  0.83311983  0.81753800    -0.35200
C591        C  0.45561012  0.83337829  0.81980909     0.01000
C592        C  0.45276731  0.84368036  0.82925611     0.07100
C593        C  0.46549984  0.84949742  0.83239780    -0.06000
H594        H  0.44827587  0.82631742  0.81516454     0.07700
H595        H  0.46753037  0.85747084  0.83996603     0.08900
Cu596      Cu  0.47951671  0.81900981  0.80513478     0.44200
Cu597      Cu  0.49679692  0.84442918  0.82724432     0.42000
Cu598      Cu  0.51455783  0.81392391  0.81333952     0.43900
N599        N  0.49155693  0.80454265  0.79502254    -0.34700
N600        N  0.50458927  0.80226747  0.79843486    -0.28900
C601        C  0.50980733  0.79236938  0.79017504    -0.05000
C602        C  0.49953776  0.78827652  0.78102085     0.07200
C603        C  0.48809380  0.79623902  0.78443780     0.01000
H604        H  0.52041000  0.78876077  0.79053284     0.08600
H605        H  0.47797407  0.79601630  0.77963497     0.07700
N606        N  0.52382393  0.82885794  0.82551494    -0.36100
N607        N  0.51786261  0.84037229  0.82985873    -0.28300
C608        C  0.52749411  0.84822183  0.83621796    -0.03600
C609        C  0.54000654  0.84116628  0.83598560     0.05100
C610        C  0.53722849  0.82896355  0.82914578     0.03100
H611        H  0.52552677  0.85826742  0.84069635     0.08300
H612        H  0.54456845  0.82095931  0.82644563     0.07100
N613        N  0.83921502  0.52222758  0.83292739    -0.27300
N614        N  0.82939685  0.52828570  0.82552159    -0.35200
C615        C  0.82940228  0.54189522  0.82830305     0.01000
C616        C  0.83985004  0.54464061  0.83771721     0.07100
C617        C  0.84590064  0.53192917  0.84038392    -0.06000
H618        H  0.82273667  0.54936835  0.82329441     0.07700
H619        H  0.85459754  0.52989696  0.84714919     0.08900
Cu620      Cu  0.81760050  0.51842783  0.81039396     0.44200
Cu621      Cu  0.84336076  0.50105580  0.83223424     0.42000
Cu622      Cu  0.82918864  0.48425019  0.80206872     0.43900
N623        N  0.80974851  0.50707351  0.79383453    -0.34700
N624        N  0.81467593  0.49481896  0.79038251    -0.28900
C625        C  0.80768810  0.49003186  0.77934904    -0.05000
C626        C  0.79772531  0.49964180  0.77573266     0.07200
C627        C  0.79931055  0.51032740  0.78516463     0.01000
H628        H  0.80919659  0.47992832  0.77482423     0.08600
H629        H  0.79317864  0.51965526  0.78582725     0.07700
N630        N  0.84085951  0.47408919  0.81689933    -0.36100
N631        N  0.84559405  0.47995957  0.82830788    -0.28300
C632        C  0.85177641  0.47021762  0.83616539    -0.03600
C633        C  0.85102850  0.45768190  0.82924256     0.05100
C634        C  0.84403972  0.46058216  0.81707750     0.03100
H635        H  0.85657212  0.47213996  0.84610143     0.08300
H636        H  0.84111439  0.45332348  0.80909015     0.07100
N637        N  0.83534464  0.16290793  0.47042885    -0.27300
N638        N  0.82385243  0.16809195  0.46510688    -0.35200
C639        C  0.82331117  0.16510681  0.45155960     0.01000
C640        C  0.83509511  0.15779375  0.44807163     0.07100
C641        C  0.84254577  0.15660771  0.46028789    -0.06000
H642        H  0.81530047  0.16871816  0.44460815     0.07700
H643        H  0.85254479  0.15174903  0.46166810     0.08900
Cu644      Cu  0.81044268  0.18096375  0.47555103     0.44200
Cu645      Cu  0.84071249  0.16533167  0.49110372     0.42000
Cu646      Cu  0.82239178  0.19385012  0.50782482     0.43900
N647        N  0.80102244  0.19713310  0.48571835    -0.34700
N648        N  0.80577189  0.20232557  0.49741644    -0.28900
C649        C  0.79814731  0.21341447  0.50086227    -0.05000
C650        C  0.78809915  0.21527643  0.49078811     0.07200
C651        C  0.79023955  0.20472900  0.48136567     0.01000
H652        H  0.79986342  0.21965872  0.50998143     0.08600
H653        H  0.78475804  0.20300307  0.47175453     0.07700
N654        N  0.83643446  0.18111721  0.51765116    -0.36100
N655        N  0.84248397  0.17025788  0.51195479    -0.28300
C656        C  0.84894566  0.16298088  0.52194221    -0.03600
C657        C  0.84701911  0.16977438  0.53439895     0.05100
C658        C  0.83910823  0.18121617  0.53127561     0.03100
H659        H  0.85426360  0.15328084  0.52032390     0.08300
H660        H  0.83473259  0.18851846  0.53854057     0.07100
O661        O  0.77687624  0.76411191  0.00637790    -0.73000
O662        O  0.75921353  0.78527061  0.97558643    -0.73900
O663        O  0.77896348  0.76364515  0.97697925    -0.62600
O664        O  0.75720713  0.78602071  0.00488583    -0.71000
O665        O  0.77402279  0.80160619  0.00523059    -0.70500
O666        O  0.79588732  0.77907388  0.97808513    -0.61800
O667        O  0.77617646  0.80070874  0.97592654    -0.74300
O668        O  0.79362047  0.77975468  0.00747043    -0.73100
Cu669      Cu  0.76748314  0.77422367  0.99094460     1.04600
Cu670      Cu  0.78553103  0.79080150  0.99172441     1.04300
C671        C  0.78804792  0.76857083  0.01184910     0.93200
C672        C  0.76479304  0.79626685  0.97083473     0.92400
C673        C  0.79089853  0.76792517  0.97306990     0.84500
C674        C  0.76211773  0.79747607  0.00931737     0.90800
N675        N  0.69393086  0.89946558  0.84731051    -0.27300
N676        N  0.70547019  0.89652012  0.85405186    -0.35200
C677        C  0.71577554  0.90452274  0.84928432     0.01000
C678        C  0.71056243  0.91293850  0.83895118     0.07100
C679        C  0.69665436  0.90942470  0.83794316    -0.06000
H680        H  0.72635705  0.90399708  0.85293049     0.07700
H681        H  0.68903750  0.91383160  0.83101499     0.08900
Cu682      Cu  0.70723594  0.88152131  0.86907549     0.44200
Cu683      Cu  0.67514019  0.88967782  0.85125659     0.42000
Cu684      Cu  0.67684202  0.86196443  0.87693724     0.43900
N685        N  0.70711372  0.86561858  0.88323984    -0.34700
N686        N  0.69592536  0.85834423  0.88618677    -0.28900
C687        C  0.69920536  0.84872944  0.89568872    -0.05000
C688        C  0.71319858  0.84999445  0.89887860     0.07200
C689        C  0.71782382  0.86086841  0.89073237     0.01000
H690        H  0.69184648  0.84146351  0.89997833     0.08600
H691        H  0.72820522  0.86503155  0.89014079     0.07700
N692        N  0.65899565  0.86746438  0.86624524    -0.36100
N693        N  0.65824642  0.87765783  0.85713489    -0.28300
C694        C  0.64522231  0.87834309  0.85218164    -0.03600
C695        C  0.63742575  0.86799670  0.85836712     0.05100
C696        C  0.64653440  0.86133034  0.86721958     0.03100
H697        H  0.64181335  0.88557523  0.84434078     0.08300
H698        H  0.64430572  0.85262873  0.87390555     0.07100
O699        O  0.79446666  0.01760591  0.76763387    -0.73000
O700        O  0.77471229  0.98797240  0.78882679    -0.73900
O701        O  0.79467133  0.98839510  0.76739540    -0.62600
O702        O  0.77450357  0.01714468  0.78934637    -0.71000
O703        O  0.75768087  0.01739450  0.77373929    -0.70500
O704        O  0.77827488  0.98858299  0.75133687    -0.61800
O705        O  0.75811670  0.98796122  0.77296574    -0.74300
O706        O  0.77768608  0.01797421  0.75197149    -0.73100
Cu707      Cu  0.78516317  0.00279589  0.77881623     1.04600
Cu708      Cu  0.76733279  0.00298872  0.76195368     1.04300
C709        C  0.78930458  0.02243755  0.75643516     0.93200
C710        C  0.76325647  0.98324124  0.78421697     0.92400
C711        C  0.78977333  0.98389024  0.75597167     0.84500
C712        C  0.76284482  0.02176694  0.78513629     0.90800
N713        N  0.85534164  0.69962955  0.88915090    -0.27300
N714        N  0.86319337  0.71065105  0.88733310    -0.35200
C715        C  0.85819922  0.72107446  0.89503628     0.01000
C716        C  0.84656204  0.71643825  0.90211260     0.07100
C717        C  0.84506769  0.70275793  0.89806173    -0.06000
H718        H  0.86276183  0.73126841  0.89540895     0.07700
H719        H  0.83731596  0.69547941  0.90158100     0.08900
Cu720      Cu  0.88036720  0.71083991  0.87450021     0.44200
Cu721      Cu  0.85962918  0.68083498  0.87968676     0.42000
Cu722      Cu  0.89037244  0.67866941  0.85757349     0.43900
N723        N  0.89642293  0.70919983  0.86039514    -0.34700
N724        N  0.90011226  0.69764403  0.85412443    -0.28900
C725        C  0.91035929  0.70052477  0.84507713    -0.05000
C726        C  0.91325876  0.71458553  0.84568354     0.07200
C727        C  0.90418545  0.71967290  0.85556856     0.01000
H728        H  0.91516807  0.69292697  0.83843225     0.08600
H729        H  0.90290768  0.73029679  0.85875027     0.07700
N730        N  0.87750228  0.66188827  0.86209122    -0.36100
N731        N  0.86621855  0.66291388  0.86982695    -0.28300
C732        C  0.85974793  0.65062703  0.87014076    -0.03600
C733        C  0.86727811  0.64129718  0.86229345     0.05100
C734        C  0.87853266  0.64881036  0.85739228     0.03100
H735        H  0.85019854  0.64866878  0.87569126     0.08300
H736        H  0.88661838  0.64517561  0.85053341     0.07100
O737        O  0.01302607  0.78313476  0.75339820    -0.73000
O738        O  0.98387711  0.76394572  0.77586392    -0.73900
O739        O  0.98355815  0.78440687  0.75482417    -0.62600
O740        O  0.01311518  0.76284372  0.77446393    -0.71000
O741        O  0.01435049  0.77919329  0.79046598    -0.70500
O742        O  0.98492711  0.80080040  0.77075996    -0.61800
O743        O  0.98496988  0.78030115  0.79186599    -0.74300
O744        O  0.01438962  0.79947426  0.76939134    -0.73100
Cu745      Cu  0.99832543  0.77303664  0.76407282     1.04600
Cu746      Cu  0.99969563  0.79053127  0.78116305     1.04300
C747        C  0.01849454  0.79425748  0.75793260     0.93200
C748        C  0.97988644  0.76893696  0.78744656     0.92400
C749        C  0.97948719  0.79598471  0.75971385     0.84500
C750        C  0.01843965  0.76763511  0.78557739     0.90800
N751        N  0.89278833  0.85717271  0.69251081    -0.27300
N752        N  0.89093745  0.86547968  0.70319530    -0.35200
C753        C  0.89906832  0.86125534  0.71370283     0.01000
C754        C  0.90638745  0.84966709  0.70945207     0.07100
C755        C  0.90211309  0.84744210  0.69591888    -0.06000
H756        H  0.89943215  0.86617335  0.72374590     0.07700
H757        H  0.90557203  0.83941755  0.68895005     0.08900
Cu758      Cu  0.87709449  0.88190484  0.70297602     0.44200
Cu759      Cu  0.88245316  0.85930629  0.67379634     0.42000
Cu760      Cu  0.85816969  0.88786463  0.67108043     0.43900
N761        N  0.86188495  0.89691549  0.70065391    -0.34700
N762        N  0.85490107  0.89909790  0.68909689    -0.28900
C763        C  0.84544849  0.90908275  0.69132490    -0.05000
C764        C  0.84648501  0.91344427  0.70499802     0.07200
C765        C  0.85709687  0.90544374  0.71051578     0.01000
H766        H  0.83822371  0.91267514  0.68356487     0.08600
H767        H  0.86099421  0.90553092  0.72100485     0.07700
N768        N  0.86259562  0.87437377  0.65497437    -0.36100
N769        N  0.87107419  0.86370243  0.65610338    -0.28300
C770        C  0.87118860  0.85674147  0.64405144    -0.03600
C771        C  0.86250280  0.86345929  0.63484295     0.05100
C772        C  0.85726445  0.87460781  0.64210869     0.03100
H773        H  0.87734348  0.84761712  0.64206585     0.08300
H774        H  0.84993646  0.88221201  0.63839634     0.07100
O775        O  0.21418199  0.75634891  0.97718224    -0.73000
O776        O  0.23388449  0.77663911  0.00750139    -0.73900
O777        O  0.21323596  0.75554421  0.00659443    -0.62600
O778        O  0.23476819  0.77758731  0.97833515    -0.71000
O779        O  0.21812561  0.79336264  0.97821746    -0.70500
O780        O  0.19702333  0.77174934  0.00662459    -0.61800
O781        O  0.21760449  0.79278872  0.00731672    -0.74300
O782        O  0.19768489  0.77227215  0.97727967    -0.73100
Cu783      Cu  0.22457148  0.76594138  0.99240005     1.04600
Cu784      Cu  0.20701723  0.78305429  0.99235867     1.04300
C785        C  0.20277166  0.76108289  0.97243861     0.93200
C786        C  0.22908673  0.78810638  0.01194585     0.92400
C787        C  0.20168839  0.76023126  0.01110776     0.84500
C788        C  0.22995751  0.78914314  0.97405614     0.90800
N789        N  0.14410060  0.69468263  0.88307541    -0.27300
N790        N  0.13570830  0.70538476  0.88205823    -0.35200
C791        C  0.13989812  0.71530639  0.89076707     0.01000
C792        C  0.15158349  0.71070548  0.89774379     0.07100
C793        C  0.15392360  0.69751606  0.89254526    -0.06000
H794        H  0.13471315  0.72513915  0.89180696     0.07700
H795        H  0.16206303  0.69041090  0.89544079     0.08900
Cu796      Cu  0.11913868  0.70628616  0.86867696     0.44200
Cu797      Cu  0.14123738  0.67683541  0.87154120     0.42000
Cu798      Cu  0.11151442  0.67627835  0.84793977     0.43900
N799        N  0.10443230  0.70602957  0.85325010    -0.34700
N800        N  0.10164392  0.69513779  0.84553975    -0.28900
C801        C  0.09213559  0.69866590  0.83600840    -0.05000
C802        C  0.08877855  0.71250470  0.83778934     0.07200
C803        C  0.09681559  0.71676958  0.84888051     0.01000
H804        H  0.08812074  0.69163067  0.82831468     0.08600
H805        H  0.09741323  0.72697871  0.85334572     0.07700
N806        N  0.12413906  0.65939309  0.85182376    -0.36100
N807        N  0.13512535  0.65981725  0.85999611    -0.28300
C808        C  0.14126578  0.64738138  0.85997778    -0.03600
C809        C  0.13375791  0.63863546  0.85149340     0.05100
C810        C  0.12293166  0.64659657  0.84651551     0.03100
H811        H  0.15039766  0.64484192  0.86595037     0.08300
H812        H  0.11489384  0.64341292  0.83939979     0.07100
N813        N  0.13961236  0.69304098  0.09793943    -0.27300
N814        N  0.13461806  0.70500045  0.10220949    -0.35200
C815        C  0.13933133  0.71507581  0.09382376     0.01000
C816        C  0.14778602  0.70919690  0.08379042     0.07100
C817        C  0.14771230  0.69518245  0.08678363    -0.06000
H818        H  0.13693994  0.72590800  0.09512052     0.07700
H819        H  0.15310719  0.68708689  0.08127023     0.08900
Cu820      Cu  0.12165914  0.70694066  0.11930838     0.44200
Cu821      Cu  0.13553903  0.67446368  0.10785318     0.42000
Cu822      Cu  0.11465073  0.67573606  0.13924738     0.43900
N823        N  0.10766881  0.70602183  0.13567569    -0.34700
N824        N  0.10485437  0.69470104  0.14282907    -0.28900
C825        C  0.09463710  0.69753281  0.15194343    -0.05000
C826        C  0.09084034  0.71132246  0.15049792     0.07200
C827        C  0.09941787  0.71631196  0.14007566     0.01000
H828        H  0.09020801  0.69002345  0.15897564     0.08600
H829        H  0.09936093  0.72655055  0.13558690     0.07700
N830        N  0.12538584  0.65815394  0.13257771    -0.36100
N831        N  0.13243494  0.65764972  0.12082481    -0.28300
C832        C  0.13816847  0.64506474  0.11946313    -0.03600
C833        C  0.13477140  0.63722704  0.13098634     0.05100
C834        C  0.12664818  0.64588797  0.13909386     0.03100
H835        H  0.14485486  0.64206651  0.11097968     0.08300
H836        H  0.12206406  0.64348837  0.14904623     0.07100
O837        O  0.00819119  0.75877278  0.20773357    -0.73000
O838        O  0.97870717  0.78079136  0.22728517    -0.73900
O839        O  0.97879233  0.75945780  0.20678839    -0.62600
O840        O  0.00813089  0.78025573  0.22803802    -0.71000
O841        O  0.00847710  0.79614042  0.21148320    -0.70500
O842        O  0.97993306  0.77517703  0.19011118    -0.61800
O843        O  0.97915902  0.79649296  0.21056829    -0.74300
O844        O  0.00941515  0.77487392  0.19140291    -0.73100
Cu845      Cu  0.99339728  0.76926077  0.21803733     1.04600
Cu846      Cu  0.99423940  0.78619256  0.20030737     1.04300
C847        C  0.01358952  0.76342537  0.19656217     0.93200
C848        C  0.97440133  0.79220898  0.22219267     0.92400
C849        C  0.97488186  0.76396206  0.19495078     0.84500
C850        C  0.01288605  0.79158344  0.22308962     0.90800
N851        N  0.84642710  0.69613403  0.09614384    -0.27300
N852        N  0.85177266  0.70768431  0.10110339    -0.35200
C853        C  0.84579601  0.71851324  0.09482758     0.01000
C854        C  0.83624014  0.71367111  0.08530157     0.07100
C855        C  0.83687546  0.69938287  0.08650872    -0.06000
H856        H  0.84861068  0.72912580  0.09684234     0.07700
H857        H  0.83126293  0.69185266  0.08044706     0.08900
Cu858      Cu  0.86810585  0.70888416  0.11489620     0.44200
Cu859      Cu  0.85293263  0.67649653  0.10214832     0.42000
Cu860      Cu  0.88206307  0.67697722  0.12606679     0.43900
N861        N  0.88569507  0.70767264  0.12704999    -0.34700
N862        N  0.89077829  0.69575916  0.13134134    -0.28900
C863        C  0.90199053  0.69813457  0.13923172    -0.05000
C864        C  0.90416706  0.71225661  0.13980515     0.07200
C865        C  0.89364721  0.71799061  0.13191822     0.01000
H866        H  0.90814549  0.69015734  0.14410575     0.08600
H867        H  0.89173518  0.72885104  0.13009072     0.07700
N868        N  0.87150722  0.65928232  0.12035991    -0.36100
N869        N  0.86109681  0.65886388  0.11146901    -0.28300
C870        C  0.85609891  0.64586243  0.11103341    -0.03600
C871        C  0.86362878  0.63783300  0.12023911     0.05100
C872        C  0.87329125  0.64669801  0.12591882     0.03100
H873        H  0.84703390  0.64273557  0.10524581     0.08300
H874        H  0.88069362  0.64432981  0.13399109     0.07100
N875        N  0.86253696  0.90503834  0.29762929    -0.27300
N876        N  0.86970377  0.90217844  0.28632288    -0.35200
C877        C  0.86551750  0.91049225  0.27597658     0.01000
C878        C  0.85508955  0.91904879  0.28089156     0.07100
C879        C  0.85354037  0.91527306  0.29473050    -0.06000
H880        H  0.86942214  0.90986678  0.26549187     0.07700
H881        H  0.84621014  0.91939455  0.30212463     0.08900
Cu882      Cu  0.88389867  0.88621478  0.28494754     0.44200
Cu883      Cu  0.86474462  0.89405025  0.31613919     0.42000
Cu884      Cu  0.88778443  0.86398722  0.31465413     0.43900
N885        N  0.89651594  0.86892750  0.28504236    -0.34700
N886        N  0.89799439  0.86066572  0.29583939    -0.28900
C887        C  0.90660790  0.85028490  0.29233442    -0.05000
C888        C  0.91075789  0.85207063  0.27861561     0.07200
C889        C  0.90407801  0.86406305  0.27441760     0.01000
H890        H  0.90953870  0.84203857  0.29930220     0.08600
H891        H  0.90444634  0.86889389  0.26432007     0.07700
N892        N  0.87629952  0.86964691  0.33212546    -0.36100
N893        N  0.86822901  0.88067967  0.33278747    -0.28300
C894        C  0.86241420  0.88127585  0.34548104    -0.03600
C895        C  0.86689347  0.87001228  0.35316657     0.05100
C896        C  0.87567890  0.86288415  0.34431880     0.03100
H897        H  0.85511457  0.88911175  0.34872324     0.08300
H898        H  0.88123824  0.85344646  0.34656661     0.07100
O899        O  0.76352783  0.98715053  0.20952803    -0.73000
O900        O  0.78351486  0.01771927  0.22883314    -0.73900
O901        O  0.76244035  0.01652711  0.20823007    -0.62600
O902        O  0.78479864  0.98848758  0.22989823    -0.71000
O903        O  0.80085893  0.98865766  0.21346710    -0.70500
O904        O  0.77853467  0.01619808  0.19184466    -0.61800
O905        O  0.79954610  0.01791657  0.21235852    -0.74300
O906        O  0.77970957  0.98686361  0.19319884    -0.73100
Cu907      Cu  0.77300366  0.00246768  0.21969101     1.04600
Cu908      Cu  0.79019670  0.00241347  0.20213877     1.04300
C909        C  0.76846727  0.98208853  0.19835651     0.93200
C910        C  0.79470274  0.02263655  0.22374378     0.92400
C911        C  0.76703968  0.02080941  0.19653486     0.84500
C912        C  0.79642433  0.98421934  0.22513065     0.90800
N913        N  0.69426360  0.86192831  0.09379957    -0.27300
N914        N  0.70571082  0.86922840  0.09557262    -0.35200
C915        C  0.71521903  0.86520328  0.08621168     0.01000
C916        C  0.70959340  0.85477742  0.07813933     0.07100
C917        C  0.69626201  0.85299592  0.08330046    -0.06000
H918        H  0.72564180  0.86928283  0.08568103     0.07700
H919        H  0.68856109  0.84569489  0.07976742     0.08900
Cu920      Cu  0.70849245  0.88372356  0.11119407     0.44200
Cu921      Cu  0.67647471  0.86422020  0.10591568     0.42000
Cu922      Cu  0.67946974  0.88864476  0.13404987     0.43900
N923        N  0.70903931  0.89662442  0.12837415    -0.34700
N924        N  0.69833394  0.89835949  0.13671679    -0.28900
C925        C  0.70187945  0.90703159  0.14695701    -0.05000
C926        C  0.71557167  0.91101517  0.14506833     0.07200
C927        C  0.71973702  0.90416823  0.13310946     0.01000
H928        H  0.69491558  0.91007473  0.15518033     0.08600
H929        H  0.72977207  0.90457592  0.12813561     0.07700
N930        N  0.66160308  0.87765656  0.12989039    -0.36100
N931        N  0.66031801  0.86882532  0.11954580    -0.28300
C932        C  0.64734895  0.86366420  0.11969058    -0.03600
C933        C  0.64018947  0.86946580  0.13073027     0.05100
C934        C  0.64960636  0.87827233  0.13694305     0.03100
H935        H  0.64349773  0.85609822  0.11241671     0.08300
H936        H  0.64785503  0.88481096  0.14585050     0.07100
N937        N  0.70236051  0.15092717  0.09705639    -0.27300
N938        N  0.71305832  0.14247801  0.09819327    -0.35200
C939        C  0.72275157  0.14614137  0.08884051     0.01000
C940        C  0.71798330  0.15747442  0.08139394     0.07100
C941        C  0.70499483  0.16020359  0.08697427    -0.06000
H942        H  0.73258409  0.14092174  0.08763837     0.07700
H943        H  0.69782033  0.16817471  0.08379271     0.08900
Cu944      Cu  0.71391667  0.12610540  0.11223132     0.44200
Cu945      Cu  0.68434103  0.14900068  0.10880211     0.42000
Cu946      Cu  0.68217136  0.11878004  0.13099959     0.43900
N947        N  0.71205247  0.11032525  0.12684909    -0.34700
N948        N  0.70046392  0.10765215  0.13366929    -0.28900
C949        C  0.70275350  0.09719351  0.14259021    -0.05000
C950        C  0.71646062  0.09299474  0.14136167     0.07200
C951        C  0.72199453  0.10158962  0.13122042     0.01000
H952        H  0.69496803  0.09301047  0.14949068     0.08600
H953        H  0.73256641  0.10173983  0.12748758     0.07700
N954        N  0.66578229  0.13244394  0.12785223    -0.36100
N955        N  0.66676461  0.14373839  0.12018921    -0.28300
C956        C  0.65460219  0.15053572  0.12061237    -0.03600
C957        C  0.64542472  0.14312164  0.12882867     0.05100
C958        C  0.65290896  0.13168945  0.13321516     0.03100
H959        H  0.65250955  0.16001700  0.11505263     0.08300
H960        H  0.64933074  0.12348635  0.13995203     0.07100
O961        O  0.76692370  0.22187049  0.00461821    -0.73000
O962        O  0.79003099  0.24310669  0.97685954    -0.73900
O963        O  0.76824199  0.22318807  0.97508808    -0.62600
O964        O  0.78867759  0.24189065  0.00617573    -0.71000
O965        O  0.80429085  0.22511570  0.00612364    -0.70500
O966        O  0.78378631  0.20635328  0.97514096    -0.61800
O967        O  0.80549784  0.22619991  0.97681693    -0.74300
O968        O  0.78254968  0.20511501  0.00452537    -0.73100
Cu969      Cu  0.77791106  0.23308364  0.99069668     1.04600
Cu970      Cu  0.79454691  0.21510807  0.99066681     1.04300
C971        C  0.77108330  0.21007423  0.00893419     0.93200
C972        C  0.80148845  0.23804038  0.97252498     0.92400
C973        C  0.77277569  0.21178974  0.97017988     0.84500
C974        C  0.79988094  0.23663010  0.01087416     0.90800
N975        N  0.69803788  0.10817304  0.84981431    -0.27300
N976        N  0.71000428  0.11131605  0.85568714    -0.35200
C977        C  0.71981120  0.10255245  0.85107963     0.01000
C978        C  0.71379772  0.09355456  0.84169602     0.07100
C979        C  0.69998364  0.09746604  0.84113791    -0.06000
H980        H  0.73061862  0.10298703  0.85401731     0.07700
H981        H  0.69191428  0.09284157  0.83490794     0.08900
Cu982      Cu  0.71263224  0.12794799  0.86904026     0.44200
Cu983      Cu  0.67957898  0.11863665  0.85391413     0.42000
Cu984      Cu  0.68245795  0.14905990  0.87590582     0.43900
N985        N  0.71292110  0.14526412  0.88175797    -0.34700
N986        N  0.70198297  0.15310164  0.88421988    -0.28900
C987        C  0.70557213  0.16308840  0.89324386    -0.05000
C988        C  0.71944605  0.16142810  0.89671965     0.07200
C989        C  0.72371546  0.15001799  0.88914341     0.01000
H990        H  0.69843929  0.17066168  0.89735728     0.08600
H991        H  0.73388060  0.14532243  0.88910338     0.07700
N992        N  0.66388653  0.14213133  0.86731625    -0.36100
N993        N  0.66273761  0.13092822  0.85957928    -0.28300
C994        C  0.64937700  0.12939706  0.85580193    -0.03600
C995        C  0.64172405  0.14022057  0.86131036     0.05100
C996        C  0.65133299  0.14805993  0.86854896     0.03100
H997        H  0.64561362  0.12125211  0.84913557     0.08300
H998        H  0.64938753  0.15745248  0.87427810     0.07100
N999        N  0.90995986  0.30481351  0.85092868    -0.27300
N1000       N  0.90685594  0.29370253  0.85826071    -0.35200
C1001       C  0.91433791  0.28296605  0.85355893     0.01000
C1002       C  0.92258523  0.28746528  0.84264888     0.07100
C1003       C  0.91950959  0.30143354  0.84134630    -0.06000
H1004       H  0.91344660  0.27256415  0.85755489     0.07700
H1005       H  0.92371478  0.30864212  0.83387724     0.08900
Cu1006     Cu  0.89189098  0.29344709  0.87370413     0.44200
Cu1007     Cu  0.90038935  0.32385361  0.85384028     0.42000
Cu1008     Cu  0.87339521  0.32522837  0.88042329     0.43900
N1009       N  0.87588461  0.29510496  0.88797254    -0.34700
N1010       N  0.86900887  0.30663185  0.89046520    -0.28900
C1011       C  0.85921687  0.30405685  0.90010295    -0.05000
C1012       C  0.85996762  0.29020759  0.90391845     0.07200
C1013       C  0.87070153  0.28493197  0.89592342     0.01000
H1014       H  0.85215023  0.31177017  0.90405219     0.08600
H1015       H  0.87448800  0.27443141  0.89572412     0.07700
N1016       N  0.87937261  0.34206232  0.86828377    -0.36100
N1017       N  0.88890393  0.34146684  0.85843197    -0.28300
C1018       C  0.88959330  0.35380135  0.85199937    -0.03600
C1019       C  0.88014547  0.36266125  0.85816165     0.05100
C1020       C  0.87389931  0.35485068  0.86847821     0.03100
H1021       H  0.89643774  0.35611238  0.84341524     0.08300
H1022       H  0.86561091  0.35806676  0.87530443     0.07100
N1023       N  0.30034387  0.85487268  0.89321916    -0.27300
N1024       N  0.28935265  0.86281694  0.89151486    -0.35200
C1025       C  0.27967114  0.85924498  0.90087594     0.01000
C1026       C  0.28475037  0.84846528  0.90892397     0.07100
C1027       C  0.29794907  0.84603102  0.90371036    -0.06000
H1028       H  0.26954219  0.86397184  0.90142289     0.07700
H1029       H  0.30525569  0.83824802  0.90703568     0.08900
Cu1030     Cu  0.28750870  0.87755600  0.87597639     0.44200
Cu1031     Cu  0.31801488  0.85621668  0.88107771     0.42000
Cu1032     Cu  0.31740332  0.88220107  0.85404713     0.43900
N1033       N  0.28773589  0.89050699  0.85880992    -0.34700
N1034       N  0.29865603  0.89204709  0.85069756    -0.28900
C1035       C  0.29548605  0.90083131  0.84038679    -0.05000
C1036       C  0.28184899  0.90512611  0.84203254     0.07200
C1037       C  0.27730837  0.89830533  0.85388767     0.01000
H1038       H  0.30270343  0.90385947  0.83236476     0.08600
H1039       H  0.26717146  0.89884602  0.85863393     0.07700
N1040       N  0.33490007  0.87104344  0.85941313    -0.36100
N1041       N  0.33498652  0.86115253  0.86887360    -0.28300
C1042       C  0.34777450  0.85568248  0.86956558    -0.03600
C1043       C  0.35617459  0.86262665  0.86024556     0.05100
C1044       C  0.34768204  0.87229883  0.85399877     0.03100
H1045       H  0.35078387  0.84743804  0.87651769     0.08300
H1046       H  0.35050616  0.87953457  0.84591856     0.07100
O1047       O  0.98920398  0.21866896  0.78656365    -0.73000
O1048       O  0.01787904  0.19807474  0.76473327    -0.73900
O1049       O  0.01843774  0.21821424  0.78594954    -0.62600
O1050       O  0.98858564  0.19838907  0.76523063    -0.71000
O1051       O  0.98810927  0.21507969  0.74948236    -0.70500
O1052       O  0.01876593  0.23455263  0.76983632    -0.61800
O1053       O  0.01755642  0.21425700  0.74845538    -0.74300
O1054       O  0.98943541  0.23538590  0.77085157    -0.73100
Cu1055     Cu  0.00351143  0.20775906  0.77613702     1.04600
Cu1056     Cu  0.00345443  0.22539628  0.75907985     1.04300
C1057       C  0.98500257  0.23046307  0.78234165     0.93200
C1058       C  0.02224773  0.20282795  0.75316350     0.92400
C1059       C  0.02329614  0.22956612  0.78124367     0.84500
C1060       C  0.98361548  0.20352535  0.75409320     0.90800
N1061       N  0.89275652  0.14611289  0.68936800    -0.27300
N1062       N  0.89104498  0.13788205  0.70015326    -0.35200
C1063       C  0.90025931  0.14137421  0.71000882     0.01000
C1064       C  0.90805495  0.15243242  0.70517423     0.07100
C1065       C  0.90297751  0.15512180  0.69204464    -0.06000
H1066       H  0.90101926  0.13641405  0.72003057     0.07700
H1067       H  0.90652509  0.16295132  0.68485966     0.08900
Cu1068     Cu  0.87575340  0.12280605  0.70069274     0.44200
Cu1069     Cu  0.88125629  0.14458765  0.67145537     0.42000
Cu1070     Cu  0.85445126  0.11854371  0.66947673     0.43900
N1071       N  0.85908687  0.10934936  0.69896764    -0.34700
N1072       N  0.85126995  0.10786638  0.68782323    -0.28900
C1073       C  0.84134125  0.09844954  0.69047392    -0.05000
C1074       C  0.84305229  0.09370513  0.70391056     0.07200
C1075       C  0.85439060  0.10088699  0.70894771     0.01000
H1076       H  0.83362786  0.09514902  0.68306291     0.08600
H1077       H  0.85888599  0.10015157  0.71917959     0.07700
N1078       N  0.85987121  0.13128794  0.65309022    -0.36100
N1079       N  0.86947173  0.14097016  0.65403443    -0.28300
C1080       C  0.87045908  0.14764072  0.64188465    -0.03600
C1081       C  0.86106591  0.14186095  0.63276785     0.05100
C1082       C  0.85454445  0.13147166  0.64021770     0.03100
H1083       H  0.87771156  0.15591307  0.63980664     0.08300
H1084       H  0.84643555  0.12464489  0.63663174     0.07100
N1085       N  0.15186178  0.10477068  0.68796168    -0.27300
N1086       N  0.14546273  0.10860259  0.69941907    -0.35200
C1087       C  0.14948086  0.10037696  0.70988619     0.01000
C1088       C  0.15888772  0.09078855  0.70480482     0.07100
C1089       C  0.16013003  0.09397567  0.69081426    -0.06000
H1090       H  0.14548166  0.10117979  0.72031777     0.07700
H1091       H  0.16631188  0.08871836  0.68311292     0.08900
Cu1092     Cu  0.13055212  0.12390709  0.70004144     0.44200
Cu1093     Cu  0.14827612  0.11380020  0.66883583     0.42000
Cu1094     Cu  0.11838484  0.13656909  0.66698494     0.43900
N1095       N  0.11406851  0.13736175  0.69782584    -0.34700
N1096       N  0.10940803  0.14182517  0.68576625    -0.28900
C1097       C  0.09831164  0.14994654  0.68793960    -0.05000
C1098       C  0.09580205  0.15058818  0.70208940     0.07200
C1099       C  0.10607735  0.14247348  0.70798745     0.01000
H1100       H  0.09242958  0.15482362  0.67975618     0.08600
H1101       H  0.10769839  0.14033912  0.71886203     0.07700
N1102       N  0.13047413  0.13126435  0.65005206    -0.36100
N1103       N  0.14171816  0.12349997  0.65086237    -0.28300
C1104       C  0.14789843  0.12313366  0.63837968    -0.03600
C1105       C  0.14005779  0.13087914  0.62924358     0.05100
C1106       C  0.12907069  0.13584962  0.63697112     0.03100
H1107       H  0.15744596  0.11771088  0.63615453     0.08300
H1108       H  0.12101062  0.14280522  0.63350628     0.07100
O1109       O  0.21573656  0.00824664  0.75144649    -0.73000
O1110       O  0.23536900  0.97844890  0.77274423    -0.73900
O1111       O  0.21480367  0.97910012  0.75149603    -0.62600
O1112       O  0.23631285  0.00783462  0.77229035    -0.71000
O1113       O  0.22013465  0.00837224  0.78859070    -0.70500
O1114       O  0.19806474  0.97984434  0.76720609    -0.61800
O1115       O  0.21869877  0.97888372  0.78855301    -0.74300
O1116       O  0.19953638  0.00918508  0.76774853    -0.73100
Cu1117     Cu  0.22612679  0.99333949  0.76147110     1.04600
Cu1118     Cu  0.20854362  0.99403935  0.77861043     1.04300
C1119       C  0.20460472  0.01351411  0.75631078     0.93200
C1120       C  0.23015736  0.97397919  0.78409024     0.92400
C1121       C  0.20289019  0.97517715  0.75576063     0.84500
C1122       C  0.23158604  0.01286076  0.78357863     0.90800
N1123       N  0.14199990  0.89330940  0.68150206    -0.27300
N1124       N  0.13403007  0.89139595  0.69247812    -0.35200
C1125       C  0.13757668  0.90043354  0.70239301     0.01000
C1126       C  0.14839714  0.90856485  0.69758159     0.07100
C1127       C  0.15093508  0.90368605  0.68423602    -0.06000
H1128       H  0.13281635  0.90070955  0.71253439     0.07700
H1129       H  0.15873888  0.90732295  0.67705216     0.08900
Cu1130     Cu  0.11911006  0.87614049  0.69407383     0.44200
Cu1131     Cu  0.14008873  0.88121830  0.66359641     0.42000
Cu1132     Cu  0.11499016  0.85250602  0.66589382     0.43900
N1133       N  0.10539249  0.85974155  0.69455555    -0.34700
N1134       N  0.10384529  0.85091014  0.68427679    -0.28900
C1135       C  0.09439436  0.84135268  0.68798487    -0.05000
C1136       C  0.08976904  0.84429388  0.70131540     0.07200
C1137       C  0.09703574  0.85608186  0.70506960     0.01000
H1138       H  0.09121252  0.83289804  0.68141909     0.08600
H1139       H  0.09653120  0.86158594  0.71478531     0.07700
N1140       N  0.12683941  0.85701378  0.64843636    -0.36100
N1141       N  0.13560729  0.86749270  0.64741475    -0.28300
C1142       C  0.14093505  0.86766612  0.63449452    -0.03600
C1143       C  0.13537094  0.85672800  0.62706461     0.05100
C1144       C  0.12651071  0.85020439  0.63629650     0.03100
H1145       H  0.14842568  0.87514577  0.63082550     0.08300
H1146       H  0.12003452  0.84131457  0.63426776     0.07100
N1147       N  0.30378859  0.85342043  0.08907620    -0.27300
N1148       N  0.29276021  0.86117117  0.09135496    -0.35200
C1149       C  0.28213822  0.85648583  0.08375676     0.01000
C1150       C  0.28659385  0.84515942  0.07625906     0.07100
C1151       C  0.30041513  0.84349478  0.07992169    -0.06000
H1152       H  0.27182823  0.86085324  0.08401833     0.07700
H1153       H  0.30752072  0.83568636  0.07622668     0.08900
Cu1154     Cu  0.29201685  0.87721357  0.10528098     0.44200
Cu1155     Cu  0.32267824  0.85675664  0.09891514     0.42000
Cu1156     Cu  0.32249444  0.88326582  0.12570421     0.43900
N1157       N  0.29266838  0.89121353  0.12127255    -0.34700
N1158       N  0.30376846  0.89327397  0.12897294    -0.28900
C1159       C  0.30071280  0.90256996  0.13882319    -0.05000
C1160       C  0.28698970  0.90658160  0.13724451     0.07200
C1161       C  0.28225192  0.89913965  0.12595780     0.01000
H1162       H  0.30803697  0.90616451  0.14647846     0.08600
H1163       H  0.27194290  0.89921749  0.12158007     0.07700
N1164       N  0.33992434  0.87196931  0.12020127    -0.36100
N1165       N  0.33995972  0.86228814  0.11055475    -0.28300
C1166       C  0.35266115  0.85660892  0.10993390    -0.03600
C1167       C  0.36107868  0.86301902  0.11962995     0.05100
C1168       C  0.35262309  0.87274969  0.12590289     0.03100
H1169       H  0.35548888  0.84831818  0.10298907     0.08300
H1170       H  0.35533559  0.87958507  0.13432693     0.07100
O1171       O  0.22522381  0.98178379  0.18970673    -0.73000
O1172       O  0.20539566  0.01007488  0.21220266    -0.73900
O1173       O  0.22627616  0.01085869  0.19138304    -0.62600
O1174       O  0.20458758  0.98091617  0.21046441    -0.71000
O1175       O  0.22060380  0.97979083  0.22686851    -0.70500
O1176       O  0.24255626  0.00975715  0.20750733    -0.61800
O1177       O  0.22148539  0.00909455  0.22853558    -0.74300
O1178       O  0.24144386  0.98039005  0.20589094    -0.73100
Cu1179     Cu  0.21482854  0.99599363  0.20040941     1.04600
Cu1180     Cu  0.23211252  0.99472207  0.21777768     1.04300
C1181       C  0.23646756  0.97653663  0.19423745     0.93200
C1182       C  0.21006837  0.01397983  0.22393686     0.92400
C1183       C  0.23792741  0.01490971  0.19620742     0.84500
C1184       C  0.20914188  0.97560627  0.22170417     0.90800
N1185       N  0.13883348  0.89523620  0.28875622    -0.27300
N1186       N  0.13322444  0.89129124  0.27691938    -0.35200
C1187       C  0.13903271  0.89849855  0.26648184     0.01000
C1188       C  0.14886650  0.90744278  0.27193645     0.07100
C1189       C  0.14835670  0.90505762  0.28613770    -0.06000
H1190       H  0.13646974  0.89701614  0.25568647     0.07700
H1191       H  0.15459007  0.90989621  0.29405958     0.08900
Cu1192     Cu  0.11841387  0.87578628  0.27530221     0.44200
Cu1193     Cu  0.13433163  0.88625202  0.30790394     0.42000
Cu1194     Cu  0.11225214  0.85613009  0.30651734     0.43900
N1195       N  0.10396311  0.85992108  0.27666490    -0.34700
N1196       N  0.10174920  0.85271059  0.28808509    -0.28900
C1197       C  0.09161338  0.84347176  0.28573357    -0.05000
C1198       C  0.08714912  0.84489833  0.27213698     0.07200
C1199       C  0.09529261  0.85545826  0.26673248     0.01000
H1200       H  0.08765134  0.83644081  0.29350006     0.08600
H1201       H  0.09498729  0.85967294  0.25635881     0.07700
N1202       N  0.12307044  0.86206361  0.32411002    -0.36100
N1203       N  0.13063001  0.87342713  0.32490183    -0.28300
C1204       C  0.13610847  0.87428745  0.33771317    -0.03600
C1205       C  0.13194942  0.86280560  0.34527114     0.05100
C1206       C  0.12370992  0.85529909  0.33627508     0.03100
H1207       H  0.14307304  0.88236497  0.34108567     0.08300
H1208       H  0.11856228  0.84559299  0.33839491     0.07100
N1209       N  0.30550452  0.13742386  0.09054905    -0.27300
N1210       N  0.29442374  0.13004388  0.09365926    -0.35200
C1211       C  0.28387242  0.13402970  0.08545900     0.01000
C1212       C  0.28849445  0.14449512  0.07669082     0.07100
C1213       C  0.30232951  0.14629934  0.08029646    -0.06000
H1214       H  0.27357505  0.12966822  0.08601405     0.07700
H1215       H  0.30961316  0.15360340  0.07595247     0.08900
Cu1216     Cu  0.29437744  0.11518526  0.10927610     0.44200
Cu1217     Cu  0.32430664  0.13518388  0.10076565     0.42000
Cu1218     Cu  0.32622192  0.11004005  0.12904446     0.43900
N1219       N  0.29641037  0.10119222  0.12555749    -0.34700
N1220       N  0.30781245  0.09933772  0.13291821    -0.28900
C1221       C  0.30535380  0.08960444  0.14264685    -0.05000
C1222       C  0.29176718  0.08503020  0.14128472     0.07200
C1223       C  0.28648391  0.09268868  0.13033442     0.01000
H1224       H  0.31297890  0.08598829  0.15001064     0.08600
H1225       H  0.27610061  0.09226686  0.12615650     0.07700
N1226       N  0.34286893  0.12223544  0.12251830    -0.36100
N1227       N  0.34202964  0.13139460  0.11236925    -0.28300
C1228       C  0.35434466  0.13773761  0.11092133    -0.03600
C1229       C  0.36349551  0.13232982  0.12056998     0.05100
C1230       C  0.35582188  0.12248276  0.12772299     0.03100
H1231       H  0.35644727  0.14568220  0.10331263     0.08300
H1232       H  0.35928592  0.11615001  0.13628544     0.07100
N1233       N  0.30292195  0.13768935  0.88347990    -0.27300
N1234       N  0.29128689  0.13134500  0.88012764    -0.35200
C1235       C  0.28119886  0.13533095  0.88887126     0.01000
C1236       C  0.28670366  0.14473244  0.89819395     0.07100
C1237       C  0.30053676  0.14596170  0.89440892    -0.06000
H1238       H  0.27056246  0.13186863  0.88822116     0.07700
H1239       H  0.30833846  0.15238728  0.89920170     0.08900
Cu1240     Cu  0.28962583  0.11791364  0.86351855     0.44200
Cu1241     Cu  0.32135654  0.13487633  0.87275267     0.42000
Cu1242     Cu  0.32008574  0.11187861  0.84257356     0.43900
N1243       N  0.29000045  0.10461002  0.84672465    -0.34700
N1244       N  0.30103456  0.10226197  0.83895785    -0.28900
C1245       C  0.29776465  0.09270293  0.82934418    -0.05000
C1246       C  0.28400029  0.08879808  0.83120822     0.07200
C1247       C  0.27948385  0.09667205  0.84232237     0.01000
H1248       H  0.30501455  0.08860769  0.82185118     0.08600
H1249       H  0.26932697  0.09659177  0.84706178     0.07700
N1250       N  0.33769948  0.12269966  0.84896812    -0.36100
N1251       N  0.33818803  0.13079142  0.85998944    -0.28300
C1252       C  0.35099367  0.13619912  0.86109027    -0.03600
C1253       C  0.35898848  0.13140303  0.85018266     0.05100
C1254       C  0.35018149  0.12285325  0.84273177     0.03100
H1255       H  0.35409811  0.14343031  0.86903201     0.08300
H1256       H  0.35262700  0.11714964  0.83342017     0.07100
O1257       O  0.23854474  0.21028731  0.97341933    -0.73000
O1258       O  0.21795845  0.23198500  0.00236289    -0.73900
O1259       O  0.23848770  0.21059082  0.00268693    -0.62600
O1260       O  0.21817029  0.23155565  0.97306646    -0.71000
O1261       O  0.20157161  0.21573352  0.97320321    -0.70500
O1262       O  0.22187111  0.19478267  0.00304264    -0.61800
O1263       O  0.20139020  0.21613031  0.00263471    -0.74300
O1264       O  0.22201811  0.19439252  0.97362405    -0.73100
Cu1265     Cu  0.22885220  0.22164599  0.98789064     1.04600
Cu1266     Cu  0.21112721  0.20471083  0.98813533     1.04300
C1267       C  0.23363648  0.19883882  0.96903088     0.93200
C1268       C  0.20632345  0.22759878  0.00696640     0.92400
C1269       C  0.23354751  0.19925994  0.00740303     0.84500
C1270       C  0.20659800  0.22704240  0.96850820     0.90800
N1271       N  0.10376938  0.29993651  0.84690587    -0.27300
N1272       N  0.10739657  0.28847858  0.85338792    -0.35200
C1273       C  0.10024155  0.27781564  0.84813327     0.01000
C1274       C  0.09170424  0.28275741  0.83773598     0.07100
C1275       C  0.09424604  0.29685189  0.83722714    -0.06000
H1276       H  0.10137590  0.26722254  0.85151954     0.07700
H1277       H  0.08943925  0.30435393  0.83045089     0.08900
Cu1278     Cu  0.12219170  0.28775526  0.86875028     0.44200
Cu1279     Cu  0.11220649  0.31905294  0.85164753     0.42000
Cu1280     Cu  0.14051866  0.31893137  0.87714930     0.43900
N1281       N  0.13768594  0.28868871  0.88339458    -0.34700
N1282       N  0.14461636  0.30001280  0.88654259    -0.28900
C1283       C  0.15400600  0.29694028  0.89639886    -0.05000
C1284       C  0.15285105  0.28298478  0.89962096     0.07200
C1285       C  0.14238714  0.27815520  0.89110063     0.01000
H1286       H  0.16100387  0.30436863  0.90096857     0.08600
H1287       H  0.13849798  0.26771049  0.89036621     0.07700
N1288       N  0.13386215  0.33627643  0.86626946    -0.36100
N1289       N  0.12341585  0.33640119  0.85740101    -0.28300
C1290       C  0.12212001  0.34917962  0.85206468    -0.03600
C1291       C  0.13233038  0.35748175  0.85770167     0.05100
C1292       C  0.13956354  0.34894054  0.86667066     0.03100
H1293       H  0.11471897  0.35201648  0.84414668     0.08300
H1294       H  0.14847564  0.35164689  0.87288879     0.07100
N1295       N  0.11014445  0.29850732  0.13559756    -0.27300
N1296       N  0.11168226  0.28760104  0.12755619    -0.35200
C1297       C  0.10297982  0.27759903  0.13181558     0.01000
C1298       C  0.09558112  0.28239342  0.14317614     0.07100
C1299       C  0.10045668  0.29572449  0.14526156    -0.06000
H1300       H  0.10228171  0.26750952  0.12708027     0.07700
H1301       H  0.09712518  0.30295917  0.15311135     0.08900
Cu1302     Cu  0.12583306  0.28696761  0.11136988     0.44200
Cu1303     Cu  0.12134893  0.31660536  0.13263911     0.42000
Cu1304     Cu  0.14667654  0.31787414  0.10442713     0.43900
N1305       N  0.14091349  0.28823145  0.09606942    -0.34700
N1306       N  0.14855657  0.29927171  0.09345239    -0.28900
C1307       C  0.15731932  0.29629497  0.08297060    -0.05000
C1308       C  0.15509397  0.28271558  0.07875509     0.07200
C1309       C  0.14457725  0.27802498  0.08739391     0.01000
H1310       H  0.16476407  0.30353569  0.07878853     0.08600
H1311       H  0.13988425  0.26789304  0.08753584     0.07700
N1312       N  0.14220677  0.33464292  0.11744435    -0.36100
N1313       N  0.13309774  0.33392605  0.12767663    -0.28300
C1314       C  0.13258132  0.34616089  0.13419985    -0.03600
C1315       C  0.14178431  0.35519401  0.12786395     0.05100
C1316       C  0.14768246  0.34748528  0.11721430     0.03100
H1317       H  0.12580616  0.34830666  0.14286386     0.08300
H1318       H  0.15550045  0.35088738  0.10992700     0.07100
N1319       N  0.10680664  0.13725834  0.29348622    -0.27300
N1320       N  0.10955802  0.13013859  0.28214158    -0.35200
C1321       C  0.10180328  0.13503884  0.27166142     0.01000
C1322       C  0.09375817  0.14584326  0.27657494     0.07100
C1323       C  0.09726044  0.14693775  0.29048537    -0.06000
H1324       H  0.10215744  0.13107508  0.26119951     0.07700
H1325       H  0.09307291  0.15411092  0.29797415     0.08900
Cu1326     Cu  0.12382806  0.11416280  0.28126965     0.44200
Cu1327     Cu  0.11610849  0.13341124  0.31257932     0.42000
Cu1328     Cu  0.14210410  0.10621674  0.31278359     0.43900
N1329       N  0.13877590  0.09886496  0.28276147    -0.34700
N1330       N  0.14550976  0.09593040  0.29429591    -0.28900
C1331       C  0.15466237  0.08576406  0.29175684    -0.05000
C1332       C  0.15365877  0.08208147  0.27790674     0.07200
C1333       C  0.14343940  0.09065532  0.27257019     0.01000
H1334       H  0.16152431  0.08143262  0.29947136     0.08600
H1335       H  0.13979436  0.09115849  0.26199487     0.07700
N1336       N  0.13710756  0.11806626  0.32992728    -0.36100
N1337       N  0.12743319  0.12773857  0.33005338    -0.28300
C1338       C  0.12694017  0.13341344  0.34278000    -0.03600
C1339       C  0.13689765  0.12711152  0.35097502     0.05100
C1340       C  0.14313608  0.11745964  0.34245399     0.03100
H1341       H  0.12021195  0.14186482  0.34568527     0.08300
H1342       H  0.15152998  0.11054566  0.34511627     0.07100
N1343       N  0.86471030  0.30552479  0.09392618    -0.27300
N1344       N  0.87187050  0.29416329  0.09639611    -0.35200
C1345       C  0.86754046  0.28416487  0.08777395     0.01000
C1346       C  0.85706356  0.28942591  0.07945148     0.07100
C1347       C  0.85558770  0.30304475  0.08369319    -0.06000
H1348       H  0.87146300  0.27370711  0.08792375     0.07700
H1349       H  0.84832640  0.31060434  0.07978497     0.08900
Cu1350     Cu  0.88655997  0.29251335  0.11202157     0.44200
Cu1351     Cu  0.86720652  0.32358812  0.10520885     0.42000
Cu1352     Cu  0.89042468  0.32180698  0.13500405     0.43900
N1353       N  0.89997456  0.29276796  0.12883692    -0.34700
N1354       N  0.90138560  0.30335866  0.13733638    -0.28900
C1355       C  0.91065229  0.30000692  0.14722509    -0.05000
C1356       C  0.91533562  0.28663383  0.14485422     0.07200
C1357       C  0.90827523  0.28244240  0.13306046     0.01000
H1358       H  0.91376240  0.30686667  0.15548349     0.08600
H1359       H  0.90889625  0.27252792  0.12796689     0.07700
N1360       N  0.87840965  0.33903765  0.12998285    -0.36100
N1361       N  0.87036515  0.33978595  0.11891709    -0.28300
C1362       C  0.86428760  0.35228673  0.11851539    -0.03600
C1363       C  0.86855778  0.35976582  0.12995164     0.05100
C1364       C  0.87748859  0.35101168  0.13700481     0.03100
H1365       H  0.85700939  0.35554731  0.11064690     0.08300
H1366       H  0.88302163  0.35322143  0.14648661     0.07100
O1367       O  0.01957312  0.21387180  0.22985917    -0.73000
O1368       O  0.99012408  0.23605134  0.21020368    -0.73900
O1369       O  0.99017759  0.21472450  0.23059468    -0.62600
O1370       O  0.01968650  0.23523917  0.20952806    -0.71000
O1371       O  0.01884757  0.21941144  0.19299601    -0.70500
O1372       O  0.98941191  0.19884406  0.21410831    -0.61800
O1373       O  0.98945551  0.22013666  0.19375567    -0.74300
O1374       O  0.01878548  0.19805642  0.21331697    -0.73100
Cu1375     Cu  0.00492031  0.22552244  0.22062369     1.04600
Cu1376     Cu  0.00409529  0.20857925  0.20297124     1.04300
C1377       C  0.02378264  0.20242606  0.22475642     0.93200
C1378       C  0.98514355  0.23156664  0.19878624     0.92400
C1379       C  0.98517494  0.20350322  0.22575198     0.84500
C1380       C  0.02392912  0.23058467  0.19788322     0.90800
N1381       N  0.85301143  0.11028525  0.29208424    -0.27300
N1382       N  0.86130312  0.11203319  0.28135564    -0.35200
C1383       C  0.85721955  0.10372156  0.27102710     0.01000
C1384       C  0.84573712  0.09627376  0.27545292     0.07100
C1385       C  0.84339585  0.10077443  0.28891424    -0.06000
H1386       H  0.86241121  0.10313344  0.26111834     0.07700
H1387       H  0.83544123  0.09734786  0.29602718     0.08900
Cu1388     Cu  0.87795238  0.12536052  0.28152260     0.44200
Cu1389     Cu  0.85567626  0.12067335  0.31054650     0.42000
Cu1390     Cu  0.88545805  0.14390419  0.31328746     0.43900
N1391       N  0.89400512  0.13924030  0.28362861    -0.34700
N1392       N  0.89680848  0.14616042  0.29507074    -0.28900
C1393       C  0.90768533  0.15454026  0.29263541    -0.05000
C1394       C  0.91194355  0.15274415  0.27899661     0.07200
C1395       C  0.90297826  0.14294333  0.27366778     0.01000
H1396       H  0.91212594  0.16140336  0.30026135     0.08600
H1397       H  0.90270943  0.13896111  0.26321313     0.07700
N1398       N  0.87189564  0.13950291  0.32949144    -0.36100
N1399       N  0.86098284  0.13132843  0.32827480    -0.28300
C1400       C  0.85425246  0.13076938  0.34044059    -0.03600
C1401       C  0.86127542  0.13890062  0.34986721     0.05100
C1402       C  0.87244072  0.14426781  0.34257277     0.03100
H1403       H  0.84505477  0.12464855  0.34231396     0.08300
H1404       H  0.88029586  0.15124757  0.34641807     0.07100
C1405       C  0.94449448  0.19198876  0.27422460    -0.17800
C1406       C  0.95463451  0.19912515  0.26671355    -0.20000
C1407       C  0.95952061  0.19391567  0.25405754     0.20600
C1408       C  0.95418190  0.18136325  0.24893331    -0.02900
C1409       C  0.94394911  0.17416120  0.25651611    -0.06000
C1410       C  0.93907270  0.17951649  0.26921010     0.20900
C1411       C  0.93856026  0.16165031  0.25135944     0.19100
C1412       C  0.94349542  0.15639457  0.23873933    -0.17500
C1413       C  0.95364060  0.16352564  0.23122912    -0.19700
C1414       C  0.95902079  0.17603073  0.23621557     0.20600
C1415       C  0.96912404  0.18330433  0.22869547    -0.32700
C1416       C  0.97447869  0.19586118  0.23371134     0.01300
C1417       C  0.96962146  0.20106299  0.24643239    -0.24100
C1418       C  0.92878088  0.17238341  0.27660799    -0.28600
C1419       C  0.92322437  0.15998303  0.27145781     0.06900
C1420       C  0.92827284  0.15465186  0.25885745    -0.27300
H1421       H  0.94086316  0.19624956  0.28394469     0.11700
H1422       H  0.95863531  0.20875068  0.27079399     0.12800
H1423       H  0.93946780  0.14678551  0.23464554     0.11900
H1424       H  0.95725198  0.15927686  0.22149543     0.11100
H1425       H  0.97280758  0.17917279  0.21893199     0.16500
H1426       H  0.97367946  0.21070898  0.25041865     0.12400
H1427       H  0.92493825  0.17665901  0.28623353     0.15300
H1428       H  0.92425028  0.14501934  0.25484056     0.15000
C1429       C  0.94660546  0.24635809  0.14959637    -0.17800
C1430       C  0.95623989  0.23864626  0.15715638    -0.20000
C1431       C  0.96034346  0.24290761  0.17041749     0.20600
C1432       C  0.95463317  0.25502582  0.17616167    -0.02900
C1433       C  0.94487502  0.26281767  0.16851777    -0.06000
C1434       C  0.94088476  0.25846262  0.15516847     0.20900
C1435       C  0.93918112  0.27497869  0.17419284     0.19100
C1436       C  0.94322763  0.27917228  0.18751317    -0.17500
C1437       C  0.95291168  0.27146180  0.19508260    -0.19700
C1438       C  0.95872900  0.25939957  0.18948522     0.20600
C1439       C  0.96862141  0.25168898  0.19690927    -0.32700
C1440       C  0.97444368  0.23962140  0.19118916     0.01300
C1441       C  0.97013484  0.23529588  0.17795875    -0.24100
C1442       C  0.93129086  0.26628678  0.14757471    -0.28600
C1443       C  0.92554290  0.27847524  0.15308213     0.06900
C1444       C  0.92957664  0.28272935  0.16644845    -0.27300
H1445       H  0.94364783  0.24286238  0.13936114     0.11700
H1446       H  0.96052778  0.22936149  0.15259808     0.12800
H1447       H  0.93894239  0.28845917  0.19206397     0.11900
H1448       H  0.95589422  0.27497150  0.20530641     0.11100
H1449       H  0.97181050  0.25511256  0.20710445     0.16500
H1450       H  0.97452009  0.22604507  0.17341314     0.12400
H1451       H  0.92845156  0.26289209  0.13728590     0.15300
H1452       H  0.92519366  0.29200456  0.17091014     0.15000
C1453       C  0.06296705  0.15272704  0.23604474    -0.17800
C1454       C  0.05318817  0.16061312  0.22881635    -0.20000
C1455       C  0.04874137  0.17339658  0.23403288     0.20600
C1456       C  0.05422670  0.17827957  0.24665336    -0.02900
C1457       C  0.06407520  0.17030589  0.25396280    -0.06000
C1458       C  0.06846456  0.15747357  0.24862988     0.20900
C1459       C  0.06948327  0.17516378  0.26662412     0.19100
C1460       C  0.06508653  0.18796375  0.27181585    -0.17500
C1461       C  0.05535594  0.19586533  0.26457312    -0.19700
C1462       C  0.04984366  0.19110677  0.25201039     0.20600
C1463       C  0.03999267  0.19893949  0.24476080    -0.32700
C1464       C  0.03440212  0.19415112  0.23219202     0.01300
C1465       C  0.03887981  0.18135231  0.22688902    -0.24100
C1466       C  0.07821018  0.14958918  0.25600137    -0.28600
C1467       C  0.08359218  0.15430893  0.26870559     0.06900
C1468       C  0.07916282  0.16714441  0.27390150    -0.27300
H1469       H  0.06621063  0.14289224  0.23179988     0.11700
H1470       H  0.04908690  0.15669896  0.21914338     0.12800
H1471       H  0.06915268  0.19185771  0.28151189     0.11900
H1472       H  0.05211058  0.20569611  0.26882483     0.11100
H1473       H  0.03664166  0.20876131  0.24896359     0.16500
H1474       H  0.03465199  0.17753192  0.21722793     0.12400
H1475       H  0.08141976  0.13968484  0.25191211     0.15300
H1476       H  0.08331677  0.17099777  0.28356919     0.15000
C1477       C  0.05831021  0.26846901  0.19392346    -0.17800
C1478       C  0.06822400  0.27577145  0.18623756    -0.20000
C1479       C  0.07153841  0.27174223  0.17266340     0.20600
C1480       C  0.06482185  0.26020294  0.16680381    -0.02900
C1481       C  0.05481094  0.25283586  0.17455761    -0.06000
C1482       C  0.05152242  0.25700759  0.18817285     0.20900
C1483       C  0.04808840  0.24131712  0.16866606     0.19100
C1484       C  0.05140366  0.23727366  0.15510747    -0.17500
C1485       C  0.06131686  0.24455916  0.14743837    -0.19700
C1486       C  0.06809720  0.25601450  0.15319514     0.20600
C1487       C  0.07809888  0.26332561  0.14557339    -0.32700
C1488       C  0.08488566  0.27484104  0.15131528     0.01300
C1489       C  0.08147480  0.27901040  0.16487281    -0.24100
C1490       C  0.04148103  0.24968161  0.19576717    -0.28600
C1491       C  0.03469493  0.23819262  0.18994578     0.06900
C1492       C  0.03813172  0.23406695  0.17639385    -0.27300
H1493       H  0.05593286  0.27180696  0.20436783     0.11700
H1494       H  0.07329845  0.28458745  0.19091602     0.12800
H1495       H  0.04632088  0.22846448  0.15042240     0.11900
H1496       H  0.06369325  0.24121895  0.13699546     0.11100
H1497       H  0.08048300  0.26008859  0.13510455     0.16500
H1498       H  0.08668825  0.28778204  0.16947243     0.12400
H1499       H  0.03895608  0.25293859  0.20620820     0.15300
H1500       H  0.03296736  0.22526241  0.17177915     0.15000
C1501       C  0.16596691  0.23317995  0.93787390    -0.17800
C1502       C  0.15841936  0.24108004  0.92838011    -0.20000
C1503       C  0.16342452  0.25395134  0.92390707     0.20600
C1504       C  0.17615600  0.25892419  0.92902431    -0.02900
C1505       C  0.18379313  0.25093242  0.93859187    -0.06000
C1506       C  0.17865096  0.23801352  0.94305080     0.20900
C1507       C  0.19652905  0.25589521  0.94372747     0.19100
C1508       C  0.20152205  0.26877363  0.93924347    -0.17500
C1509       C  0.19394335  0.27670002  0.92977410    -0.19700
C1510       C  0.18124090  0.27188326  0.92461432     0.20600
C1511       C  0.17356066  0.27976852  0.91510627    -0.32700
C1512       C  0.16088230  0.27483374  0.90988635     0.01300
C1513       C  0.15589856  0.26191569  0.91440940    -0.24100
C1514       C  0.18622218  0.23019464  0.95267309    -0.28600
C1515       C  0.19889609  0.23509933  0.95793221     0.06900
C1516       C  0.20399986  0.24794713  0.95332385    -0.27300
H1517       H  0.16186644  0.22328961  0.94118727     0.11700
H1518       H  0.14865077  0.23712130  0.92454062     0.12800
H1519       H  0.21128651  0.27273870  0.94309051     0.11900
H1520       H  0.19801702  0.28661054  0.92649430     0.11100
H1521       H  0.17756852  0.28964307  0.91165387     0.16500
H1522       H  0.14607396  0.25803891  0.91066334     0.12400
H1523       H  0.18217742  0.22032764  0.95613728     0.15300
H1524       H  0.21373468  0.25185795  0.95731069     0.15000
C1525       C  0.16144620  0.23974283  0.05149880    -0.17800
C1526       C  0.16855129  0.23206014  0.04148593    -0.20000
C1527       C  0.17973976  0.23787521  0.03422557     0.20600
C1528       C  0.18370875  0.25162944  0.03698972    -0.02900
C1529       C  0.17649086  0.25940941  0.04707299    -0.06000
C1530       C  0.16537322  0.25339973  0.05440999     0.20900
C1531       C  0.18047590  0.27314309  0.04988427     0.19100
C1532       C  0.19154954  0.27901793  0.04247953    -0.17500
C1533       C  0.19872593  0.27130604  0.03252586    -0.19700
C1534       C  0.19495470  0.25757707  0.02977281     0.20600
C1535       C  0.20228846  0.24967364  0.02001339    -0.32700
C1536       C  0.19848323  0.23589840  0.01727085     0.01300
C1537       C  0.18708656  0.23014080  0.02434665    -0.24100
C1538       C  0.15842284  0.26108664  0.06459777    -0.28600
C1539       C  0.16238882  0.27477673  0.06765216     0.06900
C1540       C  0.17341151  0.28072450  0.06011284    -0.27300
H1541       H  0.15290761  0.23497191  0.05701806     0.11700
H1542       H  0.16534605  0.22152317  0.03948661     0.12800
H1543       H  0.19473240  0.28956261  0.04445621     0.11900
H1544       H  0.20729330  0.27606354  0.02703484     0.11100
H1545       H  0.21094941  0.25427665  0.01452654     0.16500
H1546       H  0.18402853  0.21956438  0.02230364     0.12400
H1547       H  0.14995079  0.25627982  0.07014198     0.15300
H1548       H  0.17663252  0.29121428  0.06223363     0.15000
C1549       C  0.24616272  0.15001011  0.92926802    -0.17800
C1550       C  0.23867424  0.15763207  0.93904874    -0.20000
C1551       C  0.24388732  0.17018740  0.94409644     0.20600
C1552       C  0.25686564  0.17501409  0.93936856    -0.02900
C1553       C  0.26444513  0.16729689  0.92953008    -0.06000
C1554       C  0.25900546  0.15479917  0.92437378     0.20900
C1555       C  0.27738815  0.17216517  0.92475655     0.19100
C1556       C  0.28269130  0.18462408  0.92993618    -0.17500
C1557       C  0.27517467  0.19227973  0.93965579    -0.19700
C1558       C  0.26223208  0.18760164  0.94438156     0.20600
C1559       C  0.25455804  0.19532152  0.95399089    -0.32700
C1560       C  0.24156219  0.19064488  0.95872336     0.01300
C1561       C  0.23633283  0.17801602  0.95373874    -0.24100
C1562       C  0.26641733  0.14739399  0.91430609    -0.28600
C1563       C  0.27923564  0.15228414  0.90931320     0.06900
C1564       C  0.28471441  0.16460799  0.91474812    -0.27300
H1565       H  0.24185727  0.14040609  0.92545695     0.11700
H1566       H  0.22875244  0.15374528  0.94260019     0.12800
H1567       H  0.29261967  0.18850350  0.92639467     0.11900
H1568       H  0.27946218  0.20190581  0.94343144     0.11100
H1569       H  0.25874252  0.20498718  0.95779276     0.16500
H1570       H  0.22637118  0.17426758  0.95734212     0.12400
H1571       H  0.26216516  0.13782312  0.91036754     0.15300
H1572       H  0.29452022  0.16854747  0.91095817     0.15000
C1573       C  0.28536334  0.18118571  0.04084403    -0.17800
C1574       C  0.27765989  0.18894234  0.03133999    -0.20000
C1575       C  0.26352206  0.18620556  0.02931942     0.20600
C1576       C  0.25711093  0.17546138  0.03686472    -0.02900
C1577       C  0.26488775  0.16766195  0.04651116    -0.06000
C1578       C  0.27906294  0.17057229  0.04852958     0.20900
C1579       C  0.25846475  0.15701159  0.05416683     0.19100
C1580       C  0.24435577  0.15417066  0.05201934    -0.17500
C1581       C  0.23666965  0.16184187  0.04241397    -0.19700
C1582       C  0.24293179  0.17253128  0.03480835     0.20600
C1583       C  0.23527419  0.18033966  0.02520550    -0.32700
C1584       C  0.24156060  0.19116800  0.01773126     0.01300
C1585       C  0.25570478  0.19402131  0.01988515    -0.24100
C1586       C  0.28668753  0.16290257  0.05824904    -0.28600
C1587       C  0.28037170  0.15233410  0.06610611     0.06900
C1588       C  0.26621876  0.14944020  0.06388507    -0.27300
H1589       H  0.29625056  0.18354250  0.04223595     0.11700
H1590       H  0.28276176  0.19711482  0.02558855     0.12800
H1591       H  0.23924853  0.14602052  0.05779297     0.11900
H1592       H  0.22579744  0.15943898  0.04097037     0.11100
H1593       H  0.22439597  0.17803628  0.02361714     0.16500
H1594       H  0.26069975  0.20223251  0.01408479     0.12400
H1595       H  0.29753560  0.16530815  0.05969719     0.15300
H1596       H  0.26113240  0.14135431  0.06973479     0.15000
C1597       C  0.16287984  0.93153891  0.22865096    -0.17800
C1598       C  0.17133887  0.94100105  0.22163185    -0.20000
C1599       C  0.18205343  0.94788929  0.22861491     0.20600
C1600       C  0.18442019  0.94502816  0.24275277    -0.02900
C1601       C  0.17582644  0.93552926  0.24985614    -0.06000
C1602       C  0.16495519  0.92882035  0.24279265     0.20900
C1603       C  0.17801588  0.93288487  0.26405681     0.19100
C1604       C  0.18890383  0.93956458  0.27097481    -0.17500
C1605       C  0.19745035  0.94891983  0.26393304    -0.19700
C1606       C  0.19524182  0.95179864  0.24985250     0.20600
C1607       C  0.20351094  0.96149267  0.24282316    -0.32700
C1608       C  0.20097160  0.96470280  0.22882746     0.01300
C1609       C  0.19029363  0.95773402  0.22177019    -0.24100
C1610       C  0.15626460  0.91963084  0.25001046    -0.28600
C1611       C  0.15823321  0.91704794  0.26425578     0.06900
C1612       C  0.16923631  0.92370055  0.27113720    -0.27300
H1613       H  0.15461855  0.92644301  0.22304117     0.11700
H1614       H  0.16941945  0.94302131  0.21075724     0.12800
H1615       H  0.19075852  0.93762202  0.28187458     0.11900
H1616       H  0.20571377  0.95401012  0.26954451     0.11100
H1617       H  0.21169226  0.96680423  0.24835954     0.16500
H1618       H  0.18832896  0.96003351  0.21095328     0.12400
H1619       H  0.14786496  0.91466775  0.24451205     0.15300
H1620       H  0.17105888  0.92176599  0.28202750     0.15000
C1621       C  0.20253103  0.04179095  0.26647909    -0.17800
C1622       C  0.19453892  0.05120086  0.27406787    -0.20000
C1623       C  0.18219314  0.05654905  0.26854020     0.20600
C1624       C  0.17783036  0.05230654  0.25527263    -0.02900
C1625       C  0.18588327  0.04282794  0.24762444    -0.06000
C1626       C  0.19832378  0.03756852  0.25322462     0.20900
C1627       C  0.18148823  0.03866395  0.23434759     0.19100
C1628       C  0.16910466  0.04389460  0.22885348    -0.17500
C1629       C  0.16114786  0.05327926  0.23641527    -0.19700
C1630       C  0.16544722  0.05758197  0.24959327     0.20600
C1631       C  0.15759241  0.06713394  0.25712423    -0.32700
C1632       C  0.16190819  0.07159283  0.27029179     0.01300
C1633       C  0.17419697  0.06614204  0.27597685    -0.24100
C1634       C  0.20630637  0.02820565  0.24545894    -0.28600
C1635       C  0.20197039  0.02405475  0.23217288     0.06900
C1636       C  0.18952980  0.02934847  0.22675031    -0.27300
H1637       H  0.21203015  0.03784717  0.27096474     0.11700
H1638       H  0.19804283  0.05433330  0.28424774     0.12800
H1639       H  0.16558982  0.04075821  0.21867584     0.11900
H1640       H  0.15164924  0.05722054  0.23192541     0.11100
H1641       H  0.14807714  0.07104454  0.25267117     0.16500
H1642       H  0.17770516  0.06950596  0.28607096     0.12400
H1643       H  0.21583711  0.02413421  0.24976981     0.15300
H1644       H  0.18603625  0.02620741  0.21656168     0.15000
C1645       C  0.27828521  0.04673443  0.19159548    -0.17800
C1646       C  0.28589756  0.05639868  0.18385131    -0.20000
C1647       C  0.28150886  0.06036904  0.17055043     0.20600
C1648       C  0.26933648  0.05447445  0.16502080    -0.02900
C1649       C  0.26164631  0.04474861  0.17283804    -0.06000
C1650       C  0.26611932  0.04085518  0.18620329     0.20900
C1651       C  0.24945704  0.03895502  0.16726258     0.19100
C1652       C  0.24512040  0.04279202  0.15393618    -0.17500
C1653       C  0.25272220  0.05238399  0.14621249    -0.19700
C1654       C  0.26478622  0.05832985  0.15168497     0.20600
C1655       C  0.27228665  0.06813120  0.14404745    -0.32700
C1656       C  0.28433291  0.07426421  0.14948075     0.01300
C1657       C  0.28896978  0.07019373  0.16272691    -0.24100
C1658       C  0.25835114  0.03116467  0.19389286    -0.28600
C1659       C  0.24611369  0.02539030  0.18839475     0.06900
C1660       C  0.24179133  0.02940546  0.17506051    -0.27300
H1661       H  0.28190449  0.04388129  0.20182752     0.11700
H1662       H  0.29521015  0.06079780  0.18829019     0.12800
H1663       H  0.23580873  0.03839500  0.14948875     0.11900
H1664       H  0.24911489  0.05521101  0.13596693     0.11100
H1665       H  0.26869879  0.07092384  0.13379505     0.16500
H1666       H  0.29820607  0.07483903  0.16706615     0.12400
H1667       H  0.26182182  0.02814098  0.20413194     0.15300
H1668       H  0.23247074  0.02499147  0.17063697     0.15000
C1669       C  0.24674962  0.93755696  0.14437057    -0.17800
C1670       C  0.23972857  0.94739648  0.15232619    -0.20000
C1671       C  0.24510500  0.95168226  0.16512561     0.20600
C1672       C  0.25761611  0.94593926  0.17000309    -0.02900
C1673       C  0.26468863  0.93602304  0.16198467    -0.06000
C1674       C  0.25925832  0.93184557  0.14908929     0.20900
C1675       C  0.27724052  0.93036328  0.16684745     0.19100
C1676       C  0.28255398  0.93454576  0.17969105    -0.17500
C1677       C  0.27555318  0.94436992  0.18763171    -0.19700
C1678       C  0.26311955  0.95015350  0.18286156     0.20600
C1679       C  0.25614158  0.96011361  0.19071769    -0.32700
C1680       C  0.24371260  0.96595347  0.18591396     0.01300
C1681       C  0.23823424  0.96164432  0.17310903    -0.24100
C1682       C  0.26649955  0.92213328  0.14109898    -0.28600
C1683       C  0.27913149  0.91656991  0.14581806     0.06900
C1684       C  0.28433766  0.92068469  0.15876590    -0.27300
H1685       H  0.24242527  0.93445650  0.13449970     0.11700
H1686       H  0.23011822  0.95169364  0.14844296     0.12800
H1687       H  0.29217466  0.93026677  0.18356851     0.11900
H1688       H  0.27989513  0.94748344  0.19749080     0.11100
H1689       H  0.26043293  0.96334059  0.20056804     0.16500
H1690       H  0.22863786  0.96606138  0.16931450     0.12400
H1691       H  0.26238340  0.91912038  0.13112137     0.15300
H1692       H  0.29391999  0.91635181  0.16264603     0.15000
C1693       C  0.18967857  0.93837968  0.70475382    -0.17800
C1694       C  0.19737492  0.94740297  0.71305572    -0.20000
C1695       C  0.19210123  0.95199288  0.72581053     0.20600
C1696       C  0.17884763  0.94761788  0.73014390    -0.02900
C1697       C  0.17106641  0.93850764  0.72174442    -0.06000
C1698       C  0.17655784  0.93377293  0.70904324     0.20900
C1699       C  0.15788321  0.93400695  0.72614735     0.19100
C1700       C  0.15247904  0.93883059  0.73876236    -0.17500
C1701       C  0.16017455  0.94785233  0.74706941    -0.19700
C1702       C  0.17341663  0.95223555  0.74291808     0.20600
C1703       C  0.18132174  0.96111210  0.75131783    -0.32700
C1704       C  0.19462146  0.96545720  0.74712744     0.01300
C1705       C  0.19987658  0.96084169  0.73430328    -0.24100
C1706       C  0.16897234  0.92431894  0.70099475    -0.28600
C1707       C  0.15597210  0.91942659  0.70550465     0.06900
C1708       C  0.15042615  0.92458141  0.71800157    -0.27300
H1709       H  0.19405580  0.93489985  0.69502296     0.11700
H1710       H  0.20751439  0.95071613  0.70953791     0.12800
H1711       H  0.14234220  0.93551307  0.74227976     0.11900
H1712       H  0.15579746  0.95132762  0.75680300     0.11100
H1713       H  0.17709490  0.96465551  0.76109652     0.16500
H1714       H  0.21004373  0.96416861  0.73086611     0.12400
H1715       H  0.17340343  0.92050640  0.69142399     0.15300
H1716       H  0.14033630  0.92118534  0.72153815     0.15000
C1717       C  0.23694200  0.04593363  0.82238123    -0.17800
C1718       C  0.24417576  0.05662953  0.82888868    -0.20000
C1719       C  0.25628107  0.06207048  0.82291173     0.20600
C1720       C  0.26108616  0.05677521  0.81019054    -0.02900
C1721       C  0.25377064  0.04596244  0.80360944    -0.06000
C1722       C  0.24167640  0.04047739  0.80977576     0.20900
C1723       C  0.25860490  0.04059672  0.79092259     0.19100
C1724       C  0.27060816  0.04618240  0.78485503    -0.17500
C1725       C  0.27786719  0.05687068  0.79138996    -0.19700
C1726       C  0.27325518  0.06218704  0.80411170     0.20600
C1727       C  0.28064591  0.07271555  0.81091363    -0.32700
C1728       C  0.27600855  0.07795527  0.82371788     0.01300
C1729       C  0.26372116  0.07260070  0.82954138    -0.24100
C1730       C  0.23454227  0.02962737  0.80326245    -0.28600
C1731       C  0.23932631  0.02412815  0.79063956     0.06900
C1732       C  0.25137930  0.02973334  0.78454167    -0.27300
H1733       H  0.22766190  0.04188292  0.82725098     0.11700
H1734       H  0.24033449  0.06060025  0.83865179     0.12800
H1735       H  0.27443551  0.04222652  0.77507927     0.11900
H1736       H  0.28714778  0.06092256  0.78652616     0.11100
H1737       H  0.28999047  0.07680529  0.80621750     0.16500
H1738       H  0.26002226  0.07637818  0.83941937     0.12400
H1739       H  0.22525110  0.02547725  0.80803463     0.15300
H1740       H  0.25513816  0.02568559  0.77477286     0.15000
C1741       C  0.19630978  0.03932074  0.71303296    -0.17800
C1742       C  0.18991037  0.05010393  0.70583773    -0.20000
C1743       C  0.18092221  0.05918869  0.71272785     0.20600
C1744       C  0.17826273  0.05733588  0.72698065    -0.02900
C1745       C  0.18465119  0.04640204  0.73422917    -0.06000
C1746       C  0.19378026  0.03741510  0.72722044     0.20900
C1747       C  0.18194554  0.04450060  0.74847923     0.19100
C1748       C  0.17293650  0.05357240  0.75535921    -0.17500
C1749       C  0.16666470  0.06446000  0.74818293    -0.19700
C1750       C  0.16926284  0.06642257  0.73399948     0.20600
C1751       C  0.16302810  0.07731954  0.72673164    -0.32700
C1752       C  0.16560923  0.07927570  0.71248646     0.01300
C1753       C  0.17458666  0.07010045  0.70559559    -0.24100
C1754       C  0.20025992  0.02670876  0.73451924    -0.28600
C1755       C  0.19759960  0.02473500  0.74869906     0.06900
C1756       C  0.18835449  0.03360995  0.75559884    -0.27300
H1757       H  0.20325925  0.03248001  0.70750055     0.11700
H1758       H  0.19203942  0.05137361  0.69488364     0.12800
H1759       H  0.17077012  0.05227101  0.76630343     0.11900
H1760       H  0.15977517  0.07134811  0.75372986     0.11100
H1761       H  0.15617478  0.08422888  0.73225753     0.16500
H1762       H  0.17672596  0.07137670  0.69466487     0.12400
H1763       H  0.20730782  0.01984235  0.72913070     0.15300
H1764       H  0.18632430  0.03218300  0.76656043     0.15000
C1765       C  0.93543786  0.19490751  0.71247970    -0.17800
C1766       C  0.94605459  0.20205969  0.71923432    -0.20000
C1767       C  0.95414044  0.19544963  0.72933816     0.20600
C1768       C  0.95150713  0.18148077  0.73264994    -0.02900
C1769       C  0.94078096  0.17427047  0.72585108    -0.06000
C1770       C  0.93272563  0.18102759  0.71571688     0.20900
C1771       C  0.93808873  0.16032960  0.72923769     0.19100
C1772       C  0.94625296  0.15368198  0.73924710    -0.17500
C1773       C  0.95689514  0.16081818  0.74596641    -0.19700
C1774       C  0.95953705  0.17472599  0.74280538     0.20600
C1775       C  0.97000814  0.18200810  0.74969433    -0.32700
C1776       C  0.97264829  0.19595882  0.74654335     0.01300
C1777       C  0.96474081  0.20257847  0.73625268    -0.24100
C1778       C  0.92208537  0.17380134  0.70901723    -0.28600
C1779       C  0.91927577  0.15993786  0.71239568     0.06900
C1780       C  0.92729209  0.15328537  0.72255775    -0.27300
H1781       H  0.92932784  0.20024536  0.70472985     0.11700
H1782       H  0.94792141  0.21277629  0.71657540     0.12800
H1783       H  0.94437472  0.14297016  0.74191814     0.11900
H1784       H  0.96301659  0.15547310  0.75370249     0.11100
H1785       H  0.97612930  0.17677890  0.75751785     0.16500
H1786       H  0.96669913  0.21332455  0.73376014     0.12400
H1787       H  0.91586360  0.17905402  0.70129856     0.15300
H1788       H  0.92527579  0.14256830  0.72511598     0.15000
C1789       C  0.05826666  0.18558081  0.70265756    -0.17800
C1790       C  0.04807154  0.19299346  0.70981971    -0.20000
C1791       C  0.04551686  0.19035028  0.72390250     0.20600
C1792       C  0.05323312  0.18003616  0.73078801    -0.02900
C1793       C  0.06355701  0.17261439  0.72358408    -0.06000
C1794       C  0.06611733  0.17542601  0.70946481     0.20900
C1795       C  0.07136816  0.16244561  0.73055055     0.19100
C1796       C  0.06871982  0.15966569  0.74457523    -0.17500
C1797       C  0.05846174  0.16696432  0.75169092    -0.19700
C1798       C  0.05070356  0.17718002  0.74490423     0.20600
C1799       C  0.04050914  0.18461699  0.75203179    -0.32700
C1800       C  0.03285986  0.19501956  0.74532720     0.01300
C1801       C  0.03543169  0.19784535  0.73124098    -0.24100
C1802       C  0.07655805  0.16813024  0.70244856    -0.28600
C1803       C  0.08453140  0.15808816  0.70938397     0.06900
C1804       C  0.08175442  0.15527215  0.72342521    -0.27300
H1805       H  0.06007033  0.18785383  0.69180926     0.11700
H1806       H  0.04221264  0.20083213  0.70434947     0.12800
H1807       H  0.07462262  0.15186968  0.75006370     0.11900
H1808       H  0.05663524  0.16465766  0.76252961     0.11100
H1809       H  0.03865304  0.18240332  0.76289203     0.16500
H1810       H  0.02952598  0.20579220  0.72597147     0.12400
H1811       H  0.07858040  0.17046597  0.69166150     0.15300
H1812       H  0.08761642  0.14744998  0.72889037     0.15000
C1813       C  0.06460122  0.27672185  0.79475021    -0.17800
C1814       C  0.05512692  0.26922122  0.78679652    -0.20000
C1815       C  0.04947452  0.25684206  0.79185669     0.20600
C1816       C  0.05350462  0.25189808  0.80501098    -0.02900
C1817       C  0.06309380  0.25944375  0.81301806    -0.06000
C1818       C  0.06859456  0.27195915  0.80789002     0.20900
C1819       C  0.06709330  0.25451249  0.82618326     0.19100
C1820       C  0.06148174  0.24211132  0.83123232    -0.17500
C1821       C  0.05193634  0.23466363  0.82332172    -0.19700
C1822       C  0.04787779  0.23947699  0.81021815     0.20600
C1823       C  0.03820074  0.23214713  0.80229398    -0.32700
C1824       C  0.03400798  0.23707073  0.78922268     0.01300
C1825       C  0.03977162  0.24939772  0.78404992    -0.24100
C1826       C  0.07793206  0.27952465  0.81601303    -0.28600
C1827       C  0.08194332  0.27468615  0.82915046    -0.06300
C1828       C  0.07654549  0.26211785  0.83411604    -0.27300
H1829       H  0.06876119  0.28628741  0.79064556     0.11700
H1830       H  0.05215755  0.27314905  0.77670946     0.12800
H1831       H  0.06443244  0.23819884  0.84133045     0.11900
H1832       H  0.04769800  0.22514970  0.82747144     0.11100
H1833       H  0.03381147  0.22267957  0.80640612     0.16500
H1834       H  0.03661807  0.25328569  0.77399857     0.12400
H1835       H  0.08216443  0.28911437  0.81204136     0.15300
H1836       H  0.07947394  0.25836565  0.84427991     0.15000
C1837       C  0.27155273  0.94503504  0.79260793    -0.17800
C1838       C  0.27878464  0.93548689  0.80073791    -0.20000
C1839       C  0.27271932  0.92993024  0.81274563     0.20600
C1840       C  0.25920812  0.93397679  0.81655896    -0.02900
C1841       C  0.25190802  0.94362856  0.80836056    -0.06000
C1842       C  0.25813083  0.94919823  0.79634552     0.20900
C1843       C  0.23843830  0.94777180  0.81224767     0.19100
C1844       C  0.23234529  0.94214926  0.82420755    -0.17500
C1845       C  0.23956874  0.93256870  0.83230999    -0.19700
C1846       C  0.25301958  0.92845561  0.82860372     0.20600
C1847       C  0.26040335  0.91899756  0.83678979    -0.32700
C1848       C  0.27395515  0.91495419  0.83315164     0.01300
C1849       C  0.27997369  0.92046554  0.82102795    -0.24100
C1850       C  0.25088625  0.95891946  0.78834899    -0.28600
C1851       C  0.23751074  0.96324516  0.79223779     0.06900
C1852       C  0.23134449  0.95754469  0.80418340    -0.27300
H1853       H  0.27648732  0.94921070  0.78341974     0.11700
H1854       H  0.28915554  0.93248406  0.79765489     0.12800
H1855       H  0.22200206  0.94520605  0.82733233     0.11900
H1856       H  0.23465214  0.92842156  0.84151992     0.11100
H1857       H  0.25556028  0.91492219  0.84604951     0.16500
H1858       H  0.29033160  0.91747127  0.81796336     0.12400
H1859       H  0.25575964  0.96325563  0.77919712     0.15300
H1860       H  0.22103919  0.96077082  0.80727731     0.15000
C1861       C  0.95909066  0.27358000  0.79147101    -0.17800
C1862       C  0.95058531  0.28160960  0.79999788    -0.20000
C1863       C  0.94562272  0.27632357  0.81261425     0.20600
C1864       C  0.94925708  0.26280304  0.81667658    -0.02900
C1865       C  0.95785520  0.25469033  0.80806636    -0.06000
C1866       C  0.96278633  0.26012000  0.79540785     0.20900
C1867       C  0.96154730  0.24118584  0.81214820     0.19100
C1868       C  0.95658470  0.23590464  0.82477094    -0.17500
C1869       C  0.94803863  0.24393122  0.83328250    -0.19700
C1870       C  0.94431361  0.25739061  0.82933156     0.20600
C1871       C  0.93572347  0.26551073  0.83779842    -0.32700
C1872       C  0.93197158  0.27901280  0.83380767     0.01300
C1873       C  0.93705030  0.28431891  0.82118717    -0.24100
C1874       C  0.97140786  0.25205404  0.78695218    -0.28600
C1875       C  0.97525754  0.23861540  0.79098313     0.06900
C1876       C  0.97021114  0.23324594  0.80359495    -0.27300
H1877       H  0.96279947  0.27791398  0.78179422     0.11700
H1878       H  0.94788731  0.29197261  0.79671753     0.12800
H1879       H  0.95932514  0.22555943  0.82807354     0.11900
H1880       H  0.94434301  0.23960661  0.84296744     0.11100
H1881       H  0.93203525  0.26128217  0.84751694     0.16500
H1882       H  0.93421228  0.29461822  0.81786810     0.12400
H1883       H  0.97526451  0.25633507  0.77730381     0.15300
H1884       H  0.97312167  0.22292454  0.80683962     0.15000
C1885       C  0.75943928  0.16487129  0.92857770    -0.17800
C1886       C  0.76686501  0.17186831  0.93882862    -0.20000
C1887       C  0.76244705  0.18485879  0.94349620     0.20600
C1888       C  0.75047660  0.19091119  0.93770124    -0.02900
C1889       C  0.74295724  0.18382584  0.92734920    -0.06000
C1890       C  0.74745741  0.17073492  0.92281138     0.20900
C1891       C  0.73088422  0.18977071  0.92165120     0.19100
C1892       C  0.72655824  0.20283960  0.92623040    -0.17500
C1893       C  0.73402248  0.20987364  0.93646856    -0.19700
C1894       C  0.74594610  0.20396650  0.94233423     0.20600
C1895       C  0.75333400  0.21080935  0.95283018    -0.32700
C1896       C  0.76520720  0.20476393  0.95878753     0.01300
C1897       C  0.76972630  0.19181633  0.95394701    -0.24100
C1898       C  0.73984080  0.16364384  0.91270155    -0.28600
C1899       C  0.72766791  0.16936131  0.90706001     0.06900
C1900       C  0.72330499  0.18249774  0.91157479    -0.27300
H1901       H  0.76303500  0.15482191  0.92520797     0.11700
H1902       H  0.77603767  0.16707691  0.94316190     0.12800
H1903       H  0.71734288  0.20759370  0.92195032     0.11900
H1904       H  0.73040751  0.21990494  0.93986887     0.11100
H1905       H  0.74976554  0.22079439  0.95642337     0.16500
H1906       H  0.77885099  0.18704628  0.95841490     0.12400
H1907       H  0.74329048  0.15350718  0.90947868     0.15300
H1908       H  0.71403551  0.18709576  0.90724900     0.15000
C1909       C  0.81972932  0.28787095  0.93606490    -0.17800
C1910       C  0.81158782  0.28059750  0.94563624    -0.20000
C1911       C  0.81498387  0.26698974  0.94935958     0.20600
C1912       C  0.82676880  0.26069246  0.94344108    -0.02900
C1913       C  0.83497429  0.26803190  0.93376062    -0.06000
C1914       C  0.83142486  0.28167518  0.93003389     0.20900
C1915       C  0.84669571  0.26169264  0.92779169     0.19100
C1916       C  0.85017171  0.24812836  0.93159182    -0.17500
C1917       C  0.84207324  0.24087513  0.94118913    -0.19700
C1918       C  0.83033579  0.24704510  0.94714420     0.20600
C1919       C  0.82208190  0.23977453  0.95667553    -0.32700
C1920       C  0.81020757  0.24590017  0.96253493     0.01300
C1921       C  0.80677736  0.25955951  0.95883736    -0.24100
C1922       C  0.83959491  0.28886710  0.92033040    -0.28600
C1923       C  0.85131074  0.28261459  0.91425608     0.06900
C1924       C  0.85474887  0.26899256  0.91812398    -0.27300
H1925       H  0.81684995  0.29834420  0.93335053     0.11700
H1926       H  0.80259566  0.28561246  0.95009916     0.12800
H1927       H  0.85915554  0.24310803  0.92711684     0.11900
H1928       H  0.84496954  0.23040941  0.94392041     0.11100
H1929       H  0.82486752  0.22928321  0.95944347     0.16500
H1930       H  0.79772066  0.26443258  0.96333822     0.12400
H1931       H  0.83672202  0.29929400  0.91748103     0.15300
H1932       H  0.86375180  0.26399341  0.91371120     0.15000
C1933       C  0.84995302  0.24873875  0.04928132    -0.17800
C1934       C  0.84182837  0.24120714  0.03997585    -0.20000
C1935       C  0.82898288  0.24634970  0.03552673     0.20600
C1936       C  0.82430317  0.25924251  0.04046590    -0.02900
C1937       C  0.83252097  0.26685898  0.04984874    -0.06000
C1938       C  0.84537487  0.26154493  0.05430884     0.20900
C1939       C  0.82785627  0.27975453  0.05478667     0.19100
C1940       C  0.81504742  0.28493955  0.05026598    -0.17500
C1941       C  0.80690933  0.27739958  0.04096797    -0.19700
C1942       C  0.81143387  0.26454133  0.03601925     0.20600
C1943       C  0.80337468  0.25695841  0.02661597    -0.32700
C1944       C  0.80801201  0.24413736  0.02152766     0.01300
C1945       C  0.82080938  0.23888044  0.02613568    -0.24100
C1946       C  0.85338914  0.26906241  0.06378835    -0.28600
C1947       C  0.84875440  0.28185248  0.06894291     0.06900
C1948       C  0.83600532  0.28717496  0.06425197    -0.27300
H1949       H  0.85981213  0.24451965  0.05258168     0.11700
H1950       H  0.84559782  0.23134486  0.03625764     0.12800
H1951       H  0.81130286  0.29482294  0.05394717     0.11900
H1952       H  0.79706573  0.28163574  0.03764050     0.11100
H1953       H  0.79356415  0.26114914  0.02312432     0.16500
H1954       H  0.82453155  0.22905479  0.02226236     0.12400
H1955       H  0.86325128  0.26490152  0.06712605     0.15300
H1956       H  0.83223827  0.29695594  0.06815149     0.15000
C1957       C  0.76268541  0.16738882  0.03603614    -0.17800
C1958       C  0.75525583  0.16003455  0.04609223    -0.20000
C1959       C  0.74381604  0.16605591  0.05274495     0.20600
C1960       C  0.73966268  0.17953033  0.04903141    -0.02900
C1961       C  0.74717010  0.18696532  0.03885997    -0.06000
C1962       C  0.75880668  0.18089625  0.03243463     0.20900
C1963       C  0.74313743  0.20051302  0.03525673     0.19100
C1964       C  0.73152979  0.20642477  0.04172969    -0.17500
C1965       C  0.72409943  0.19906254  0.05180379    -0.19700
C1966       C  0.72812986  0.18564472  0.05560021     0.20600
C1967       C  0.72096375  0.17832625  0.06597862    -0.32700
C1968       C  0.72521955  0.16497818  0.06998310     0.01300
C1969       C  0.73658816  0.15889137  0.06315674    -0.24100
C1970       C  0.76645545  0.18847093  0.02263476    -0.28600
C1971       C  0.76265256  0.20207257  0.01908780     0.06900
C1972       C  0.75086252  0.20795545  0.02537291    -0.27300
H1973       H  0.77155549  0.16254462  0.03115694     0.11700
H1974       H  0.75854971  0.14967286  0.04876736     0.12800
H1975       H  0.72825603  0.21679853  0.03907948     0.11900
H1976       H  0.71525291  0.20391877  0.05671332     0.11100
H1977       H  0.71226952  0.18318931  0.07113181     0.16500
H1978       H  0.73987455  0.14856036  0.06592648     0.12400
H1979       H  0.77543665  0.18376403  0.01781365     0.15300
H1980       H  0.74779269  0.21839542  0.02272022     0.15000
C1981       C  0.75945730  0.93544770  0.15545738    -0.17800
C1982       C  0.76683611  0.94543051  0.16286106    -0.20000
C1983       C  0.76041607  0.95281778  0.17358624     0.20600
C1984       C  0.74652104  0.94989555  0.17711132    -0.02900
C1985       C  0.73906061  0.93986067  0.16959815    -0.06000
C1986       C  0.74552224  0.93271425  0.15863035     0.20900
C1987       C  0.72507613  0.93717405  0.17289512     0.19100
C1988       C  0.71876017  0.94430012  0.18387159    -0.17500
C1989       C  0.72616494  0.95420765  0.19135491    -0.19700
C1990       C  0.73999675  0.95717641  0.18796157     0.20600
C1991       C  0.74733123  0.96746894  0.19505222    -0.32700
C1992       C  0.76105637  0.97072258  0.19131907     0.01300
C1993       C  0.76757270  0.96322979  0.18067937    -0.24100
C1994       C  0.73788989  0.92314238  0.15085916    -0.28600
C1995       C  0.72380929  0.92064208  0.15380772     0.06900
C1996       C  0.71756883  0.92760059  0.16501320    -0.27300
H1997       H  0.76459884  0.92999943  0.14711257     0.11700
H1998       H  0.77752608  0.94749015  0.16008396     0.12800
H1999       H  0.70803733  0.94231946  0.18657426     0.11900
H2000       H  0.72101566  0.95967583  0.19968309     0.11100
H2001       H  0.74222951  0.97316691  0.20326091     0.16500
H2002       H  0.77819482  0.96556422  0.17783816     0.12400
H2003       H  0.74294702  0.91780962  0.14241006     0.15300
H2004       H  0.70678923  0.92581655  0.16753431     0.15000
C2005       C  0.75575175  0.06053133  0.14726458    -0.17800
C2006       C  0.76273518  0.05043554  0.15494003    -0.20000
C2007       C  0.75738638  0.04580613  0.16765988     0.20600
C2008       C  0.74482235  0.05133178  0.17265877    -0.02900
C2009       C  0.73773787  0.06150870  0.16487366    -0.06000
C2010       C  0.74327228  0.06616752  0.15215208     0.20900
C2011       C  0.72516812  0.06705233  0.16984703     0.19100
C2012       C  0.71980272  0.06237782  0.18255393    -0.17500
C2013       C  0.72684117  0.05233232  0.19028482    -0.19700
C2014       C  0.73937270  0.04674623  0.18545063     0.20600
C2015       C  0.74657842  0.03672547  0.19319574    -0.32700
C2016       C  0.75918493  0.03121116  0.18831278     0.01300
C2017       C  0.76444161  0.03580857  0.17547778    -0.24100
C2018       C  0.73627168  0.07639603  0.14455121    -0.28600
C2019       C  0.72372463  0.08202978  0.14941894     0.06900
C2020       C  0.71822812  0.07721469  0.16207914    -0.27300
H2021       H  0.76013918  0.06395936  0.13750802     0.11700
H2022       H  0.77236872  0.04628356  0.15094406     0.12800
H2023       H  0.71016644  0.06652442  0.18654280     0.11900
H2024       H  0.72248555  0.04894837  0.20007246     0.11100
H2025       H  0.74240085  0.03328193  0.20304420     0.16500
H2026       H  0.77411515  0.03166505  0.17156039     0.12400
H2027       H  0.74057191  0.07986724  0.13477679     0.15300
H2028       H  0.70865690  0.08151378  0.16604374     0.15000
C2029       C  0.83192955  0.05766492  0.22610663    -0.17800
C2030       C  0.83901667  0.06798084  0.23332997    -0.20000
C2031       C  0.83489692  0.07167496  0.24677390     0.20600
C2032       C  0.82350101  0.06496152  0.25298599    -0.02900
C2033       C  0.81632812  0.05457959  0.24568974    -0.06000
C2034       C  0.82059379  0.05089260  0.23219936     0.20900
C2035       C  0.80492626  0.04787107  0.25191381     0.19100
C2036       C  0.80080379  0.05156961  0.26535114    -0.17500
C2037       C  0.80793363  0.06183989  0.27258854    -0.19700
C2038       C  0.81929010  0.06858441  0.26649860     0.20600
C2039       C  0.82652321  0.07884573  0.27371774    -0.32700
C2040       C  0.83796378  0.08557600  0.26764771     0.01300
C2041       C  0.84202159  0.08192293  0.25411581    -0.24100
C2042       C  0.81347836  0.04047988  0.22505851    -0.28600
C2043       C  0.80209755  0.03374691  0.23119770     0.06900
C2044       C  0.79787149  0.03754785  0.24462160    -0.27300
H2045       H  0.83532968  0.05496948  0.21575377     0.11700
H2046       H  0.84775074  0.07304683  0.22841114     0.12800
H2047       H  0.79207505  0.04649994  0.27027548     0.11900
H2048       H  0.80457087  0.06449808  0.28296315     0.11100
H2049       H  0.82319163  0.08149648  0.28408327     0.16500
H2050       H  0.85076511  0.08695224  0.24922304     0.12400
H2051       H  0.81679731  0.03764023  0.21471310     0.15300
H2052       H  0.78915024  0.03238689  0.24947548     0.15000
C2053       C  0.83813785  0.95470498  0.22996217    -0.17800
C2054       C  0.84645372  0.94582267  0.23783765    -0.20000
C2055       C  0.84247500  0.94198087  0.25130753     0.20600
C2056       C  0.82998054  0.94712799  0.25686913    -0.02900
C2057       C  0.82156631  0.95606835  0.24890759    -0.06000
C2058       C  0.82569118  0.95990770  0.23541057     0.20900
C2059       C  0.80905850  0.96119263  0.25448439     0.19100
C2060       C  0.80506370  0.95731700  0.26792456    -0.17500
C2061       C  0.81340041  0.94848731  0.27580684    -0.19700
C2062       C  0.82587553  0.94334910  0.27038730     0.20600
C2063       C  0.83423142  0.93441658  0.27822787    -0.32700
C2064       C  0.84665264  0.92907672  0.27274976     0.01300
C2065       C  0.85072500  0.93303160  0.25927153    -0.24100
C2066       C  0.81735844  0.96895648  0.22765312    -0.28600
C2067       C  0.80491529  0.97423888  0.23319075     0.06900
C2068       C  0.80081234  0.97018690  0.24659272    -0.27300
H2069       H  0.84146227  0.95753029  0.21960898     0.11700
H2070       H  0.85600541  0.94195643  0.23338738     0.12800
H2071       H  0.79549396  0.96115053  0.27236644     0.11900
H2072       H  0.81007682  0.94566827  0.28616069     0.11100
H2073       H  0.83086172  0.93145598  0.28851302     0.16500
H2074       H  0.86030442  0.92916559  0.25490930     0.12400
H2075       H  0.82062993  0.97195240  0.21732698     0.15300
H2076       H  0.79127311  0.97416918  0.25097940     0.15000
C2077       C  0.94641505  0.75871102  0.15268006    -0.17800
C2078       C  0.93650232  0.75152136  0.14496285    -0.20000
C2079       C  0.93077455  0.73918798  0.15005100     0.20600
C2080       C  0.93523396  0.73394035  0.16295521    -0.02900
C2081       C  0.94513056  0.74127209  0.17080750    -0.06000
C2082       C  0.95070012  0.75373810  0.16565778     0.20900
C2083       C  0.94936321  0.73617772  0.18384451     0.19100
C2084       C  0.94381378  0.72371653  0.18881837    -0.17500
C2085       C  0.93410391  0.71638703  0.18098548    -0.19700
C2086       C  0.92971375  0.72143470  0.16808159     0.20600
C2087       C  0.91978961  0.71427616  0.16029419    -0.32700
C2088       C  0.91505366  0.71961682  0.14760919     0.01300
C2089       C  0.92059511  0.73206571  0.14253183    -0.24100
C2090       C  0.96039276  0.76105579  0.17359950    -0.28600
C2091       C  0.96457967  0.75613723  0.18668632     0.06900
C2092       C  0.95902529  0.74364618  0.19170120    -0.27300
H2093       H  0.95064091  0.76823823  0.14854943     0.11700
H2094       H  0.93326552  0.75564591  0.13503914     0.12800
H2095       H  0.94696517  0.71964603  0.19879208     0.11900
H2096       H  0.92995002  0.70681021  0.18507112     0.11100
H2097       H  0.91546733  0.70472966  0.16428908     0.16500
H2098       H  0.91706779  0.73613331  0.13267756     0.12400
H2099       H  0.96463819  0.77062661  0.16958072     0.15300
H2100       H  0.96221799  0.73971337  0.20172202     0.15000
C2101       C  0.93675691  0.84270803  0.23518118    -0.17800
C2102       C  0.94546088  0.83429112  0.22721842    -0.20000
C2103       C  0.95029706  0.82166208  0.23249483     0.20600
C2104       C  0.94624266  0.81746000  0.24591556    -0.02900
C2105       C  0.93747290  0.82597789  0.25396808    -0.06000
C2106       C  0.93273065  0.83866200  0.24857784     0.20900
C2107       C  0.93351602  0.82182400  0.26742511     0.19100
C2108       C  0.93830855  0.80917691  0.27268881    -0.17500
C2109       C  0.94698085  0.80074493  0.26472424    -0.19700
C2110       C  0.95102975  0.80480120  0.25134565     0.20600
C2111       C  0.95991103  0.79649131  0.24339175    -0.32700
C2112       C  0.96420410  0.80066592  0.23006419     0.01300
C2113       C  0.95923537  0.81325330  0.22466345    -0.24100
C2114       C  0.92408089  0.84709804  0.25666687    -0.28600
C2115       C  0.92003511  0.84307005  0.27013848     0.06900
C2116       C  0.92485639  0.83036660  0.27539731    -0.27300
H2117       H  0.93320371  0.85241718  0.23086674     0.11700
H2118       H  0.94845538  0.83769244  0.21694012     0.12800
H2119       H  0.93537424  0.80581180  0.28299646     0.11900
H2120       H  0.95057185  0.79105961  0.26906126     0.11100
H2121       H  0.96367501  0.78686019  0.24771426     0.16500
H2122       H  0.96246248  0.81661139  0.21443664     0.12400
H2123       H  0.92059634  0.85683352  0.25240399     0.15300
H2124       H  0.92185670  0.82702042  0.28567707     0.15000
C2125       C  0.05508595  0.83886178  0.23258700    -0.17800
C2126       C  0.04468788  0.83144761  0.22579914    -0.20000
C2127       C  0.03924310  0.81935291  0.23170905     0.20600
C2128       C  0.04423022  0.81472709  0.24463405    -0.02900
C2129       C  0.05472826  0.82222769  0.25149592    -0.06000
C2130       C  0.06021219  0.83431091  0.24540434     0.20900
C2131       C  0.05977785  0.81759716  0.26439535     0.19100
C2132       C  0.05423093  0.80555891  0.27035563    -0.17500
C2133       C  0.04383546  0.79811552  0.26354931    -0.19700
C2134       C  0.03879893  0.80257475  0.25065995     0.20600
C2135       C  0.02850754  0.79506339  0.24365304    -0.32700
C2136       C  0.02357397  0.79955420  0.23068681     0.01300
C2137       C  0.02896690  0.81177282  0.22485735    -0.24100
C2138       C  0.07074580  0.84162765  0.25219474    -0.28600
C2139       C  0.07593551  0.83707417  0.26504347     0.06900
C2140       C  0.07032262  0.82503541  0.27107577    -0.27300
H2141       H  0.05915916  0.84813671  0.22777940     0.11700
H2142       H  0.04094497  0.83514568  0.21588415     0.12800
H2143       H  0.05797150  0.80186534  0.28026987     0.11900
H2144       H  0.03977366  0.78883027  0.26834755     0.11100
H2145       H  0.02439922  0.78570188  0.24826772     0.16500
H2146       H  0.02524247  0.81537687  0.21489589     0.12400
H2147       H  0.07480085  0.85092663  0.24744936     0.15300
H2148       H  0.07422109  0.82131246  0.28090414     0.15000
C2149       C  0.05680933  0.76256749  0.16904700    -0.17800
C2150       C  0.06773539  0.75531951  0.16288579    -0.20000
C2151       C  0.06825936  0.74084479  0.16359677     0.20600
C2152       C  0.05773815  0.73360752  0.17071326    -0.02900
C2153       C  0.04674910  0.74094025  0.17704103    -0.06000
C2154       C  0.04624726  0.75548441  0.17610575     0.20900
C2155       C  0.03628394  0.73372738  0.18428951     0.19100
C2156       C  0.03681921  0.71924900  0.18499363    -0.17500
C2157       C  0.04763637  0.71198311  0.17861643    -0.19700
C2158       C  0.05817466  0.71905765  0.17148350     0.20600
C2159       C  0.06907573  0.71184271  0.16504383    -0.32700
C2160       C  0.07957073  0.71896886  0.15779112     0.01300
C2161       C  0.07908265  0.73350780  0.15724073    -0.24100
C2162       C  0.03523468  0.76269860  0.18227908    -0.28600
C2163       C  0.02486922  0.75561848  0.18968457     0.06900
C2164       C  0.02550073  0.74112352  0.19070588    -0.27300
H2165       H  0.05662435  0.77373383  0.16828954     0.11700
H2166       H  0.07574768  0.76104314  0.15748834     0.12800
H2167       H  0.02885240  0.71353254  0.19046670     0.11900
H2168       H  0.04777208  0.70081293  0.17929134     0.11100
H2169       H  0.06922401  0.70066981  0.16551135     0.16500
H2170       H  0.08713353  0.73918968  0.15187421     0.12400
H2171       H  0.03487828  0.77387138  0.18157084     0.15300
H2172       H  0.01750610  0.73560287  0.19635360     0.15000
C2173       C  0.19062651  0.71359649  0.93104464    -0.17800
C2174       C  0.19772849  0.72060224  0.94153673    -0.20000
C2175       C  0.19310493  0.73355719  0.94613150     0.20600
C2176       C  0.18123343  0.73952620  0.94006249    -0.02900
C2177       C  0.17409259  0.73247145  0.92946556    -0.06000
C2178       C  0.17877952  0.71942723  0.92496317     0.20900
C2179       C  0.16222875  0.73845618  0.92343307     0.19100
C2180       C  0.15762348  0.75142987  0.92796849    -0.17500
C2181       C  0.16467090  0.75840246  0.93847882    -0.19700
C2182       C  0.17645665  0.75252890  0.94460194     0.20600
C2183       C  0.18352835  0.75944726  0.95518356    -0.32700
C2184       C  0.19539013  0.75360741  0.96128905     0.01300
C2185       C  0.20012136  0.74064232  0.95668526    -0.24100
C2186       C  0.17149487  0.71241022  0.91453569    -0.28600
C2187       C  0.15954314  0.71824775  0.90854024     0.06900
C2188       C  0.15508493  0.73134864  0.91304132    -0.27300
H2189       H  0.19438195  0.70359466  0.92771251     0.11700
H2190       H  0.20682963  0.71586872  0.94608068     0.12800
H2191       H  0.14852533  0.75616754  0.92342064     0.11900
H2192       H  0.16088757  0.76838768  0.94183439     0.11100
H2193       H  0.17980011  0.76943095  0.95862188     0.16500
H2194       H  0.20923307  0.73602804  0.96134042     0.12400
H2195       H  0.17514924  0.70239171  0.91118846     0.15300
H2196       H  0.14595570  0.73608066  0.90861264     0.15000
C2197       C  0.15450445  0.74991016  0.05352059    -0.17800
C2198       C  0.16204824  0.75702648  0.04339776    -0.20000
C2199       C  0.17389017  0.75106879  0.03743832     0.20600
C2200       C  0.17810048  0.73774526  0.04159760    -0.02900
C2201       C  0.17043488  0.73052581  0.05177511    -0.06000
C2202       C  0.15865272  0.73669947  0.05783252     0.20900
C2203       C  0.17462493  0.71720223  0.05596597     0.19100
C2204       C  0.18639914  0.71119656  0.04989433    -0.17500
C2205       C  0.19403732  0.71838042  0.03985528    -0.19700
C2206       C  0.19001363  0.73168131  0.03567323     0.20600
C2207       C  0.19771036  0.73904611  0.02573118    -0.32700
C2208       C  0.19359928  0.75237681  0.02157175     0.01300
C2209       C  0.18161990  0.75825371  0.02745423    -0.24100
C2210       C  0.15128110  0.72962388  0.06817433    -0.28600
C2211       C  0.15545005  0.71639533  0.07254188     0.06900
C2212       C  0.16706687  0.71019546  0.06625760    -0.27300
H2213       H  0.14545542  0.75477685  0.05803369     0.11700
H2214       H  0.15866474  0.76724078  0.04029018     0.12800
H2215       H  0.18975983  0.70096933  0.05297865     0.11900
H2216       H  0.20312960  0.71354582  0.03539558     0.11100
H2217       H  0.20687892  0.73438647  0.02122895     0.16500
H2218       H  0.17833411  0.76850536  0.02434792     0.12400
H2219       H  0.14224796  0.73443291  0.07277214     0.15300
H2220       H  0.17044279  0.70004960  0.06957358     0.15000
C2221       C  0.24209401  0.83922074  0.93587569    -0.17800
C2222       C  0.23431317  0.83070805  0.94463805    -0.20000
C2223       C  0.24020372  0.81874941  0.95036597     0.20600
C2224       C  0.25414939  0.81546650  0.94746033    -0.02900
C2225       C  0.26201218  0.82408195  0.93862945    -0.06000
C2226       C  0.25589292  0.83591411  0.93269434     0.20900
C2227       C  0.27589755  0.82072294  0.93555177     0.19100
C2228       C  0.28190318  0.80896621  0.94160228    -0.17500
C2229       C  0.27411242  0.80042343  0.95036094    -0.19700
C2230       C  0.26018558  0.80349471  0.95322837     0.20600
C2231       C  0.25218229  0.79479672  0.96171644    -0.32700
C2232       C  0.23823245  0.79795782  0.96458681     0.01300
C2233       C  0.23236409  0.81000430  0.95890178    -0.24100
C2234       C  0.26354062  0.84406479  0.92342075    -0.28600
C2235       C  0.27723150  0.84051684  0.91981310     0.06900
C2236       C  0.28342404  0.82897432  0.92622428    -0.27300
H2237       H  0.23725682  0.84830667  0.93144355     0.11700
H2238       H  0.22363745  0.83341094  0.94683077     0.12800
H2239       H  0.29258039  0.80627076  0.93941240     0.11900
H2240       H  0.27894539  0.79133290  0.95478367     0.11100
H2241       H  0.25685972  0.78564161  0.96618427     0.16500
H2242       H  0.22165962  0.81260263  0.96111077     0.12400
H2243       H  0.25861927  0.85299207  0.91881136     0.15300
H2244       H  0.29398273  0.82613453  0.92375160     0.15000
C2245       C  0.23701558  0.83125301  0.03801415    -0.17800
C2246       C  0.24518882  0.83928843  0.04682369    -0.20000
C2247       C  0.25752820  0.83396084  0.05235329     0.20600
C2248       C  0.26169926  0.82042350  0.04897784    -0.02900
C2249       C  0.25344005  0.81230650  0.04010491    -0.06000
C2250       C  0.24104306  0.81775727  0.03460455     0.20900
C2251       C  0.25762867  0.79877823  0.03668839     0.19100
C2252       C  0.26998764  0.79347267  0.04219313    -0.17500
C2253       C  0.27816658  0.80151612  0.05100045    -0.19700
C2254       C  0.27413295  0.81500552  0.05443346     0.20600
C2255       C  0.28229507  0.82315472  0.06323860    -0.32700
C2256       C  0.27815891  0.83663679  0.06671832     0.01300
C2257       C  0.26576268  0.84195185  0.06118717    -0.24100
C2258       C  0.23296039  0.80967229  0.02569137    -0.28600
C2259       C  0.23713400  0.79621656  0.02212468     0.06900
C2260       C  0.24946028  0.79083333  0.02773241    -0.27300
H2261       H  0.22754638  0.83560398  0.03385201     0.11700
H2262       H  0.24185986  0.84967903  0.04930889     0.12800
H2263       H  0.27334777  0.78310315  0.03966126     0.11900
H2264       H  0.28766933  0.79718958  0.05510946     0.11100
H2265       H  0.29175316  0.81890642  0.06751911     0.16500
H2266       H  0.26253500  0.85237783  0.06362327     0.12400
H2267       H  0.22353931  0.81396303  0.02134895     0.15300
H2268       H  0.25279915  0.78049772  0.02501711     0.15000
C2269       C  0.94434213  0.79969358  0.72269166    -0.17800
C2270       C  0.93404641  0.80713970  0.71576325    -0.20000
C2271       C  0.93029849  0.82040087  0.72025526     0.20600
C2272       C  0.93682438  0.82613771  0.73197717    -0.02900
C2273       C  0.94722844  0.81861987  0.73897300    -0.06000
C2274       C  0.95105806  0.80537860  0.73423482     0.20900
C2275       C  0.95387528  0.82440358  0.75061001     0.19100
C2276       C  0.94995632  0.83757532  0.75523517    -0.17500
C2277       C  0.93964296  0.84502541  0.74830028    -0.19700
C2278       C  0.93306922  0.83943480  0.73661606     0.20600
C2279       C  0.92295903  0.84697777  0.72937969    -0.32700
C2280       C  0.91661030  0.84144743  0.71748688     0.01300
C2281       C  0.92025646  0.82806859  0.71311834    -0.24100
C2282       C  0.96158552  0.79807791  0.74105533    -0.28600
C2283       C  0.96836010  0.80379879  0.75259945     0.06900
C2284       C  0.96437319  0.81695632  0.75735563    -0.27300
H2285       H  0.94712105  0.78951628  0.71895733     0.11700
H2286       H  0.92909228  0.80256658  0.70680873     0.12800
H2287       H  0.95493060  0.84215777  0.76417521     0.11900
H2288       H  0.93687667  0.85520896  0.75202104     0.11100
H2289       H  0.92029762  0.85727132  0.73284841     0.16500
H2290       H  0.91530455  0.82356519  0.70413718     0.12400
H2291       H  0.96450162  0.78792472  0.73734520     0.15300
H2292       H  0.96948750  0.82145668  0.76626387     0.15000
C2293       C  0.04683527  0.72552372  0.79091607    -0.17800
C2294       C  0.05668384  0.71782754  0.79820675    -0.20000
C2295       C  0.06308014  0.72333336  0.81001880     0.20600
C2296       C  0.05968272  0.73679862  0.81441375    -0.02900
C2297       C  0.04974327  0.74456171  0.80706784    -0.06000
C2298       C  0.04322964  0.73884952  0.79531968     0.20900
C2299       C  0.04620780  0.75795807  0.81158323     0.19100
C2300       C  0.05279055  0.76356065  0.82324323    -0.17500
C2301       C  0.06265095  0.75586590  0.83051695    -0.19700
C2302       C  0.06607702  0.74244512  0.82624617     0.20600
C2303       C  0.07564610  0.73452078  0.83371899    -0.32700
C2304       C  0.07894095  0.72097360  0.82956434     0.01300
C2305       C  0.07268741  0.71553790  0.81758863    -0.24100
C2306       C  0.03312103  0.74649586  0.78826910    -0.28600
C2307       C  0.02937232  0.75976716  0.79284272     0.06900
C2308       C  0.03605169  0.76546071  0.80445382    -0.27300
H2309       H  0.04195474  0.72100699  0.78189264     0.11700
H2310       H  0.05921223  0.70751578  0.79467115     0.12800
H2311       H  0.05022836  0.77385558  0.82680806     0.11900
H2312       H  0.06750965  0.76036822  0.83955880     0.11100
H2313       H  0.08031526  0.73891409  0.84289006     0.16500
H2314       H  0.07518676  0.70521279  0.81412527     0.12400
H2315       H  0.02806245  0.74202983  0.77931226     0.15300
H2316       H  0.03330312  0.77571563  0.80801082     0.15000
C2317       C  0.05149990  0.83276933  0.75177854    -0.17800
C2318       C  0.06130660  0.83983222  0.74379126    -0.20000
C2319       C  0.06559290  0.83454681  0.73095198     0.20600
C2320       C  0.06009969  0.82192833  0.72619124    -0.02900
C2321       C  0.05017520  0.81480107  0.73424793    -0.06000
C2322       C  0.04578591  0.82032520  0.74704194     0.20900
C2323       C  0.04451812  0.80226802  0.72941735     0.19100
C2324       C  0.04902499  0.79684936  0.71670403    -0.17500
C2325       C  0.05887384  0.80391449  0.70872385    -0.19700
C2326       C  0.06439456  0.81651578  0.71332242     0.20600
C2327       C  0.07406720  0.82382449  0.70525235    -0.32700
C2328       C  0.07953202  0.83650943  0.70986034     0.01300
C2329       C  0.07520886  0.84173392  0.72277817    -0.24100
C2330       C  0.03560179  0.81344630  0.75478268    -0.28600
C2331       C  0.02963528  0.80113223  0.74989511     0.06900
C2332       C  0.03430910  0.79550024  0.73727826    -0.27300
H2333       H  0.04827649  0.83711992  0.76160394     0.11700
H2334       H  0.06547381  0.84948938  0.74761941     0.12800
H2335       H  0.04483319  0.78720726  0.71286480     0.11900
H2336       H  0.06209450  0.79957038  0.69889651     0.11100
H2337       H  0.07730461  0.81957045  0.69540690     0.16500
H2338       H  0.07919880  0.85146930  0.72653295     0.12400
H2339       H  0.03218667  0.81781548  0.76454019     0.15300
H2340       H  0.02988516  0.78594405  0.73347027     0.15000
C2341       C  0.95316071  0.72645158  0.79658870    -0.17800
C2342       C  0.94407972  0.71874945  0.80483984    -0.20000
C2343       C  0.93826690  0.72452774  0.81683319     0.20600
C2344       C  0.94160534  0.73822640  0.82052703    -0.02900
C2345       C  0.95081159  0.74599587  0.81221724    -0.06000
C2346       C  0.95660509  0.74005199  0.80020621     0.20900
C2347       C  0.95427563  0.75965490  0.81596898     0.19100
C2348       C  0.94838241  0.76545981  0.82791842    -0.17500
C2349       C  0.93920818  0.75777573  0.83612252    -0.19700
C2350       C  0.93578781  0.74414472  0.83253439     0.20600
C2351       C  0.92665964  0.73633773  0.84074055    -0.32700
C2352       C  0.92322512  0.72265642  0.83712637     0.01300
C2353       C  0.92914840  0.71684382  0.82515209    -0.24100
C2354       C  0.96585015  0.74774081  0.79207953    -0.28600
C2355       C  0.96955133  0.76128288  0.79583299     0.06900
C2356       C  0.96365475  0.76720286  0.80777583    -0.27300
H2357       H  0.95753836  0.72174347  0.78739504     0.11700
H2358       H  0.94161171  0.70825560  0.80184292     0.12800
H2359       H  0.95089996  0.77593367  0.83094534     0.11900
H2360       H  0.93481342  0.76248775  0.84530553     0.11100
H2361       H  0.92232243  0.74095094  0.84998746     0.16500
H2362       H  0.92654694  0.70639656  0.82214172     0.12400
H2363       H  0.97035617  0.74305100  0.78293234     0.15300
H2364       H  0.96640592  0.77764292  0.81073586     0.15000
C2365       C  0.83455116  0.93890606  0.74774581    -0.17800
C2366       C  0.82658363  0.94863490  0.75485347    -0.20000
C2367       C  0.81604614  0.95590716  0.74800563     0.20600
C2368       C  0.81341825  0.95329368  0.73388157    -0.02900
C2369       C  0.82151900  0.94348455  0.72668037    -0.06000
C2370       C  0.83213433  0.93629920  0.73366355     0.20900
C2371       C  0.81903774  0.94090803  0.71252246     0.19100
C2372       C  0.80840626  0.94813624  0.70571498    -0.17500
C2373       C  0.80033686  0.95783504  0.71286672    -0.19700
C2374       C  0.80276626  0.96051928  0.72695292     0.20600
C2375       C  0.79484684  0.97035915  0.73421396    -0.32700
C2376       C  0.79760058  0.97316977  0.74826153     0.01300
C2377       C  0.80818209  0.96581467  0.75505012    -0.24100
C2378       C  0.84018613  0.92662649  0.72649328    -0.28600
C2379       C  0.83786286  0.92391493  0.71235674     0.06900
C2380       C  0.82722209  0.93116445  0.70544621    -0.27300
H2381       H  0.84265233  0.93344672  0.75326516     0.11700
H2382       H  0.82869877  0.95050718  0.76571035     0.12800
H2383       H  0.80633372  0.94629677  0.69484598     0.11900
H2384       H  0.79222214  0.96327854  0.70735732     0.11100
H2385       H  0.78673447  0.97598745  0.72888195     0.16500
H2386       H  0.81032670  0.96779490  0.76588908     0.12400
H2387       H  0.84826504  0.92123195  0.73206129     0.15300
H2388       H  0.82524068  0.92926728  0.69458416     0.15000
C2389       C  0.83961753  0.05880649  0.74086681    -0.17800
C2390       C  0.83209037  0.04893833  0.74827319    -0.20000
C2391       C  0.81832358  0.04600750  0.74470365     0.20600
C2392       C  0.81206731  0.05301114  0.73350967    -0.02900
C2393       C  0.81967766  0.06298476  0.72601980    -0.06000
C2394       C  0.83349047  0.06589886  0.72977972     0.20900
C2395       C  0.81348536  0.07003656  0.71481186     0.19100
C2396       C  0.79970896  0.06703731  0.71122321    -0.17500
C2397       C  0.79214998  0.05713007  0.71866089    -0.19700
C2398       C  0.79823717  0.05005528  0.72981588     0.20600
C2399       C  0.79078036  0.04007623  0.73734117    -0.32700
C2400       C  0.79697900  0.03310016  0.74855505     0.01300
C2401       C  0.81074372  0.03616720  0.75214901    -0.24100
C2402       C  0.84097179  0.07587791  0.72243494    -0.28600
C2403       C  0.83491346  0.08303259  0.71131462     0.06900
C2404       C  0.82117570  0.07998822  0.70746978    -0.27300
H2405       H  0.85023028  0.06092201  0.74383910     0.11700
H2406       H  0.83703711  0.04360881  0.75682130     0.12800
H2407       H  0.79477508  0.07236024  0.70266762     0.11900
H2408       H  0.78153904  0.05500207  0.71568733     0.11100
H2409       H  0.78016464  0.03777918  0.73449509     0.16500
H2410       H  0.81564838  0.03079395  0.76070083     0.12400
H2411       H  0.85160673  0.07795717  0.72533831     0.15300
H2412       H  0.81639893  0.08550247  0.69894633     0.15000
C2413       C  0.71919831  0.06710686  0.79823058    -0.17800
C2414       C  0.72610186  0.05717147  0.79028308    -0.20000
C2415       C  0.73716314  0.04961545  0.79590948     0.20600
C2416       C  0.74133243  0.05213828  0.80969125    -0.02900
C2417       C  0.73440494  0.06222789  0.81769964    -0.06000
C2418       C  0.72325503  0.06970782  0.81194047     0.20900
C2419       C  0.73868471  0.06487931  0.83142349     0.19100
C2420       C  0.74968122  0.05724993  0.83708849    -0.17500
C2421       C  0.75648665  0.04720321  0.82918568    -0.19700
C2422       C  0.75245757  0.04463706  0.81545299     0.20600
C2423       C  0.75939609  0.03475594  0.80737195    -0.32700
C2424       C  0.75534189  0.03218646  0.79358987     0.01300
C2425       C  0.74414806  0.03963451  0.78797776    -0.24100
C2426       C  0.71642128  0.07971993  0.81994459    -0.28600
C2427       C  0.72077656  0.08260188  0.83353508     0.06900
C2428       C  0.73194000  0.07514972  0.83919717    -0.27300
H2429       H  0.71069570  0.07279303  0.79363012     0.11700
H2430       H  0.72278114  0.05539763  0.77971591     0.12800
H2431       H  0.75305763  0.05908833  0.84762703     0.11900
H2432       H  0.76497082  0.04149474  0.83379444     0.11100
H2433       H  0.76794312  0.02902754  0.81185086     0.16500
H2434       H  0.74095195  0.03777051  0.77738248     0.12400
H2435       H  0.70791198  0.08551070  0.81547793     0.15300
H2436       H  0.73527365  0.07724980  0.84970554     0.15000
C2437       C  0.75784794  0.95426280  0.82604778    -0.17800
C2438       C  0.75037901  0.94454358  0.83375563    -0.20000
C2439       C  0.73821350  0.93869473  0.82838883     0.20600
C2440       C  0.73354323  0.94261345  0.81511232    -0.02900
C2441       C  0.74109662  0.95239374  0.80732309    -0.06000
C2442       C  0.75327229  0.95827818  0.81285038     0.20900
C2443       C  0.73639927  0.95635867  0.79406556     0.19100
C2444       C  0.72429702  0.95041957  0.78865856    -0.17500
C2445       C  0.71679516  0.94073978  0.79639225    -0.19700
C2446       C  0.72128569  0.93682810  0.80964901     0.20600
C2447       C  0.71373850  0.92724050  0.81753300    -0.32700
C2448       C  0.71836171  0.92325867  0.83075042     0.01300
C2449       C  0.73062162  0.92902775  0.83608875    -0.24100
C2450       C  0.76057455  0.96818161  0.80515332    -0.28600
C2451       C  0.75583037  0.97235861  0.79202129     0.06900
C2452       C  0.74379348  0.96629909  0.78650649    -0.27300
H2453       H  0.76717702  0.95868397  0.83043543     0.11700
H2454       H  0.75409497  0.94163236  0.84393818     0.12800
H2455       H  0.72057987  0.95332989  0.77847659     0.11900
H2456       H  0.70744237  0.93635299  0.79202392     0.11100
H2457       H  0.70438650  0.92273753  0.81328380     0.16500
H2458       H  0.73419489  0.92614305  0.84632741     0.12400
H2459       H  0.76984713  0.97277673  0.80949337     0.15300
H2460       H  0.74009344  0.96939343  0.77636706     0.15000
C2461       C  0.84107117  0.75521207  0.93495740    -0.17800
C2462       C  0.83337843  0.76226403  0.94498456    -0.20000
C2463       C  0.82009598  0.75766377  0.94873016     0.20600
C2464       C  0.81447783  0.74586413  0.94228497    -0.02900
C2465       C  0.82226389  0.73872387  0.93216316    -0.06000
C2466       C  0.83562276  0.74342539  0.92851212     0.20900
C2467       C  0.81671943  0.72685681  0.92576812     0.19100
C2468       C  0.80338003  0.72233351  0.92944300    -0.17500
C2469       C  0.79564824  0.72943050  0.93944919    -0.19700
C2470       C  0.80111549  0.74117757  0.94597597     0.20600
C2471       C  0.79347191  0.74832223  0.95610550    -0.32700
C2472       C  0.79901222  0.76012301  0.96258270     0.01300
C2473       C  0.81235544  0.76468283  0.95880120    -0.24100
C2474       C  0.84336959  0.73620540  0.91858241    -0.28600
C2475       C  0.83803040  0.72424053  0.91226980     0.06900
C2476       C  0.82463910  0.71968192  0.91589177    -0.27300
H2477       H  0.85131498  0.75895654  0.93227574     0.11700
H2478       H  0.83783422  0.77131928  0.94983028     0.12800
H2479       H  0.79893903  0.71326452  0.92461292     0.11900
H2480       H  0.78539700  0.72569802  0.94211665     0.11100
H2481       H  0.78319495  0.74473063  0.95888442     0.16500
H2482       H  0.81675521  0.77375242  0.96368079     0.12400
H2483       H  0.85369116  0.73978974  0.91601572     0.15300
H2484       H  0.82033191  0.71058125  0.91100990     0.15000
C2485       C  0.72426287  0.80260531  0.94058647    -0.17800
C2486       C  0.71703452  0.81010130  0.93056491    -0.20000
C2487       C  0.72294245  0.82192958  0.92458087     0.20600
C2488       C  0.73633974  0.82616322  0.92858722    -0.02900
C2489       C  0.74364179  0.81859956  0.93872577    -0.06000
C2490       C  0.73751139  0.80682203  0.94478116     0.20900
C2491       C  0.75696942  0.82291058  0.94292065     0.19100
C2492       C  0.76295269  0.83462752  0.93675223    -0.17500
C2493       C  0.75571255  0.84211974  0.92666992    -0.19700
C2494       C  0.74235989  0.83802841  0.92259514     0.20600
C2495       C  0.73484887  0.84568208  0.91278075    -0.32700
C2496       C  0.72135840  0.84165074  0.90889530     0.01300
C2497       C  0.71558895  0.82965424  0.91477434    -0.24100
C2498       C  0.74463233  0.79953624  0.95505893    -0.28600
C2499       C  0.75780358  0.80386686  0.95951674     0.06900
C2500       C  0.76397388  0.81552059  0.95331349    -0.27300
H2501       H  0.71943961  0.79356264  0.94514056     0.11700
H2502       H  0.70676611  0.80670427  0.92757160     0.12800
H2503       H  0.77319093  0.83806360  0.93980352     0.11900
H2504       H  0.76051185  0.85118626  0.92214340     0.11100
H2505       H  0.73947006  0.85489220  0.90839693     0.16500
H2506       H  0.70533087  0.82626668  0.91179312     0.12400
H2507       H  0.73977090  0.79057290  0.95974170     0.15300
H2508       H  0.77414965  0.81890315  0.95663545     0.15000
C2509       C  0.74819051  0.84916440  0.04471301    -0.17800
C2510       C  0.75562690  0.84108337  0.03527103    -0.20000
C2511       C  0.75103294  0.82776881  0.03181915     0.20600
C2512       C  0.73870292  0.82263136  0.03777764    -0.02900
C2513       C  0.73118658  0.83079977  0.04731255    -0.06000
C2514       C  0.73603051  0.84407281  0.05088366     0.20900
C2515       C  0.71893584  0.82561109  0.05339571     0.19100
C2516       C  0.71423074  0.81238031  0.04977369    -0.17500
C2517       C  0.72166862  0.80429468  0.04032880    -0.19700
C2518       C  0.73395155  0.80928647  0.03432495     0.20600
C2519       C  0.74159629  0.80113903  0.02500843    -0.32700
C2520       C  0.75399920  0.80611301  0.01912854     0.01300
C2521       C  0.75859615  0.81948719  0.02258172    -0.24100
C2522       C  0.72876487  0.85193666  0.06071315    -0.28600
C2523       C  0.71669179  0.84673618  0.06708005     0.06900
C2524       C  0.71174052  0.83362641  0.06316826    -0.27300
H2525       H  0.75202900  0.85935586  0.04729130     0.11700
H2526       H  0.76504110  0.84521602  0.03074207     0.12800
H2527       H  0.70483996  0.80823246  0.05433276     0.11900
H2528       H  0.71785061  0.79408619  0.03778401     0.11100
H2529       H  0.73792999  0.79088102  0.02242229     0.16500
H2530       H  0.76807468  0.82349375  0.01806255     0.12400
H2531       H  0.73259063  0.86208822  0.06344335     0.15300
H2532       H  0.70250698  0.82944998  0.06800123     0.15000
C2533       C  0.82911368  0.75734617  0.05979756    -0.17800
C2534       C  0.82249264  0.76499387  0.04945883    -0.20000
C2535       C  0.81177464  0.75908684  0.04166076     0.20600
C2536       C  0.80756141  0.74538768  0.04441527    -0.02900
C2537       C  0.81429376  0.73764288  0.05481639    -0.06000
C2538       C  0.82514718  0.74365513  0.06248222     0.20900
C2539       C  0.81028922  0.72385544  0.05741844     0.19100
C2540       C  0.79942946  0.71801704  0.04973595    -0.17500
C2541       C  0.79269905  0.72572004  0.03946870    -0.19700
C2542       C  0.79674173  0.73937856  0.03668032     0.20600
C2543       C  0.79027057  0.74708254  0.02620043    -0.32700
C2544       C  0.79458863  0.76066997  0.02323401     0.01300
C2545       C  0.80530369  0.76660576  0.03107377    -0.24100
C2546       C  0.83201359  0.73583562  0.07256244    -0.28600
C2547       C  0.82830074  0.72199256  0.07509453     0.06900
C2548       C  0.81731959  0.71611597  0.06753125    -0.27300
H2549       H  0.83742832  0.76210857  0.06562057     0.11700
H2550       H  0.82581850  0.77550916  0.04750195     0.12800
H2551       H  0.79619506  0.70746003  0.05160825     0.11900
H2552       H  0.78439923  0.72095314  0.03362910     0.11100
H2553       H  0.78202895  0.74240402  0.02019929     0.16500
H2554       H  0.80863467  0.77709003  0.02893128     0.12400
H2555       H  0.84050112  0.74052555  0.07815720     0.15300
H2556       H  0.81425163  0.70552347  0.06944941     0.15000
C2557       C  0.87454818  0.14946996  0.39815659    -0.17800
C2558       C  0.87093183  0.15167886  0.41201890    -0.20000
C2559       C  0.85701729  0.15101908  0.41622040     0.20600
C2560       C  0.84665420  0.14793904  0.40638370    -0.02900
C2561       C  0.85031790  0.14556126  0.39243958    -0.06000
C2562       C  0.86432041  0.14646972  0.38828450     0.20900
C2563       C  0.83995124  0.14241811  0.38264047     0.19100
C2564       C  0.82604155  0.14169384  0.38683757    -0.17500
C2565       C  0.82239045  0.14423195  0.40061576    -0.19700
C2566       C  0.83260571  0.14742409  0.41043102     0.20600
C2567       C  0.82898977  0.15034060  0.42416735    -0.32700
C2568       C  0.83922721  0.15359969  0.43397084     0.01300
C2569       C  0.85324531  0.15366517  0.43000844    -0.24100
C2570       C  0.86783382  0.14441104  0.37433105    -0.28600
C2571       C  0.85755572  0.14122669  0.36453661     0.06900
C2572       C  0.84365472  0.14016228  0.36879414    -0.27300
H2573       H  0.88534883  0.15015581  0.39514598     0.11700
H2574       H  0.87900995  0.15404760  0.41943094     0.12800
H2575       H  0.81796663  0.13928682  0.37943238     0.11900
H2576       H  0.81156573  0.14376771  0.40358172     0.11100
H2577       H  0.81817650  0.15015221  0.42722517     0.16500
H2578       H  0.86115694  0.15630417  0.43751262     0.12400
H2579       H  0.87858510  0.14509302  0.37113886     0.15300
H2580       H  0.83565631  0.13784020  0.36127842     0.15000
C2581       C  0.84635215  0.13400918  0.57079483    -0.17800
C2582       C  0.84764029  0.13029268  0.58475110    -0.20000
C2583       C  0.85230598  0.13993300  0.59453696     0.20600
C2584       C  0.85565551  0.15346985  0.59023259    -0.02900
C2585       C  0.85420187  0.15726332  0.57620388    -0.06000
C2586       C  0.84959686  0.14745935  0.56641898     0.20900
C2587       C  0.85721200  0.17091199  0.57200635     0.19100
C2588       C  0.86188510  0.18055455  0.58176484    -0.17500
C2589       C  0.86353870  0.17673087  0.59562266    -0.19700
C2590       C  0.86042378  0.16324317  0.59994783     0.20600
C2591       C  0.86203619  0.15936292  0.61381850    -0.32700
C2592       C  0.85881229  0.14588467  0.61818179     0.01300
C2593       C  0.85378860  0.13626054  0.60852323    -0.24100
C2594       C  0.84802855  0.15139105  0.55250836    -0.28600
C2595       C  0.85057267  0.16508911  0.54843618     0.06900
C2596       C  0.85523554  0.17475703  0.55817596    -0.27300
H2597       H  0.84272570  0.12638663  0.56343612     0.11700
H2598       H  0.84502668  0.11986058  0.58788523     0.12800
H2599       H  0.86424100  0.19106212  0.57868110     0.11900
H2600       H  0.86719607  0.18434585  0.60297591     0.11100
H2601       H  0.86571084  0.16690100  0.62124194     0.16500
H2602       H  0.85136772  0.12582654  0.61180726     0.12400
H2603       H  0.84421688  0.14400328  0.54499243     0.15300
H2604       H  0.85716527  0.18532817  0.55497743     0.15000
C2605       C  0.87475206  0.39863058  0.82209667    -0.17800
C2606       C  0.87044312  0.41182840  0.81803836    -0.20000
C2607       C  0.86551981  0.42128607  0.82788818     0.20600
C2608       C  0.86502223  0.41744978  0.84198950    -0.02900
C2609       C  0.86915061  0.40403534  0.84605685    -0.06000
C2610       C  0.87406647  0.39459971  0.83605804     0.20900
C2611       C  0.86820782  0.40002475  0.86009020     0.19100
C2612       C  0.86347026  0.40955892  0.86996336    -0.17500
C2613       C  0.85960121  0.42292235  0.86596743    -0.19700
C2614       C  0.86026148  0.42695583  0.85200386     0.20600
C2615       C  0.85608107  0.44024449  0.84784896    -0.32700
C2616       C  0.85622684  0.44399912  0.83376704     0.01300
C2617       C  0.86097636  0.43446013  0.82386459    -0.24100
C2618       C  0.87801188  0.38124153  0.84015615    -0.28600
C2619       C  0.87675804  0.37704563  0.85406551     0.06900
C2620       C  0.87188149  0.38652106  0.86397514    -0.27300
H2621       H  0.87848279  0.39151922  0.81428546     0.11700
H2622       H  0.87093403  0.41462993  0.80717390     0.12800
H2623       H  0.86272146  0.40666752  0.88078698     0.11900
H2624       H  0.85595484  0.43006657  0.87379327     0.11100
H2625       H  0.85231974  0.44751470  0.85550857     0.16500
H2626       H  0.86123361  0.43734069  0.81300873     0.12400
H2627       H  0.88164435  0.37397547  0.83243925     0.15300
H2628       H  0.87101908  0.38340304  0.87473186     0.15000
C2629       C  0.88010676  0.59302286  0.85043669    -0.17800
C2630       C  0.87627235  0.57937364  0.84748955    -0.20000
C2631       C  0.86224008  0.57551426  0.84722554     0.20600
C2632       C  0.85198732  0.58549261  0.85016405    -0.02900
C2633       C  0.85586957  0.59920790  0.85335677    -0.06000
C2634       C  0.86998985  0.60304488  0.85332809     0.20900
C2635       C  0.84559371  0.60911041  0.85640566     0.19100
C2636       C  0.83157202  0.60526133  0.85623196    -0.17500
C2637       C  0.82772078  0.59176286  0.85283805    -0.19700
C2638       C  0.83783056  0.58183522  0.84969774     0.20600
C2639       C  0.83400996  0.56839646  0.84584978    -0.32700
C2640       C  0.84413463  0.55843138  0.84277816     0.01300
C2641       C  0.85824756  0.56196270  0.84378174    -0.24100
C2642       C  0.87370869  0.61682782  0.85612816    -0.28600
C2643       C  0.86349287  0.62673804  0.85924637     0.06900
C2644       C  0.84947612  0.62272658  0.85944574    -0.27300
H2645       H  0.89099679  0.59574886  0.85041712     0.11700
H2646       H  0.88428910  0.57186769  0.84524010     0.12800
H2647       H  0.82355807  0.61274396  0.85856794     0.11900
H2648       H  0.81681522  0.58910644  0.85259191     0.11100
H2649       H  0.82313017  0.56567410  0.84518675     0.16500
H2650       H  0.86608422  0.55432869  0.84131489     0.12400
H2651       H  0.88453887  0.61979401  0.85605902     0.15300
H2652       H  0.84150582  0.63028865  0.86166502     0.15000
C2653       C  0.39434655  0.83001386  0.85163886    -0.17800
C2654       C  0.40783216  0.82736629  0.84706074    -0.20000
C2655       C  0.41681016  0.83830603  0.84380338     0.20600
C2656       C  0.41227398  0.85206098  0.84539410    -0.02900
C2657       C  0.39856837  0.85472981  0.84973542    -0.06000
C2658       C  0.38956994  0.84363854  0.85284909     0.20900
C2659       C  0.39378475  0.86846894  0.85066094     0.19100
C2660       C  0.40289932  0.87940928  0.84777458    -0.17500
C2661       C  0.41658382  0.87676560  0.84374344    -0.19700
C2662       C  0.42132654  0.86313624  0.84235112     0.20600
C2663       C  0.43482462  0.86036133  0.83763961    -0.32700
C2664       C  0.43913933  0.84668386  0.83548197     0.01300
C2665       C  0.43014680  0.83572436  0.83871098    -0.24100
C2666       C  0.37586125  0.84635477  0.85679970    -0.28600
C2667       C  0.37090212  0.85997349  0.85719424     0.06900
C2668       C  0.37991041  0.87099374  0.85420600    -0.27300
H2669       H  0.38756876  0.82139537  0.85399207     0.11700
H2670       H  0.41120588  0.81675272  0.84595580     0.12800
H2671       H  0.39940964  0.89001613  0.84852457     0.11900
H2672       H  0.42338517  0.88538495  0.84146393     0.11100
H2673       H  0.44176254  0.86880788  0.83509629     0.16500
H2674       H  0.43354704  0.82515870  0.83721740     0.12400
H2675       H  0.36888596  0.83785144  0.85902770     0.15300
H2676       H  0.37610603  0.88151772  0.85466223     0.15000
C2677       C  0.58978648  0.88084447  0.84407767    -0.17800
C2678       C  0.57599043  0.87719538  0.84143672    -0.20000
C2679       C  0.57155602  0.86347492  0.84306372     0.20600
C2680       C  0.58110753  0.85336829  0.84755649    -0.02900
C2681       C  0.59497545  0.85707885  0.85036960    -0.06000
C2682       C  0.59937279  0.87086032  0.84849951     0.20900
C2683       C  0.60446624  0.84695450  0.85490874     0.19100
C2684       C  0.60005872  0.83324041  0.85655388    -0.17500
C2685       C  0.58638423  0.82953275  0.85359727    -0.19700
C2686       C  0.57686901  0.83949828  0.84903989     0.20600
C2687       C  0.56327488  0.83576049  0.84565831    -0.32700
C2688       C  0.55376797  0.84569075  0.84092829     0.01300
C2689       C  0.55785995  0.85959783  0.83995657    -0.24100
C2690       C  0.61327495  0.87438103  0.85103864    -0.28600
C2691       C  0.62276048  0.86434025  0.85565728     0.06900
C2692       C  0.61822948  0.85067417  0.85762540    -0.27300
H2693       H  0.59296994  0.89148038  0.84262103     0.11700
H2694       H  0.56882215  0.88508426  0.83796927     0.12800
H2695       H  0.60722672  0.82534743  0.86001861     0.11900
H2696       H  0.58326924  0.81884545  0.85479819     0.11100
H2697       H  0.56011645  0.82504992  0.84655619     0.16500
H2698       H  0.55058534  0.86726355  0.83620306     0.12400
H2699       H  0.61666217  0.88495829  0.84959225     0.15300
H2700       H  0.62548937  0.84282888  0.86100455     0.15000
C2701       C  0.84738281  0.87875887  0.41398804    -0.17800
C2702       C  0.85138090  0.88257089  0.40055222    -0.20000
C2703       C  0.85487606  0.87247989  0.39071325     0.20600
C2704       C  0.85430277  0.85839551  0.39446871    -0.02900
C2705       C  0.84999449  0.85453494  0.40794947    -0.06000
C2706       C  0.84662802  0.86477805  0.41779616     0.20900
C2707       C  0.84897703  0.84043137  0.41153597     0.19100
C2708       C  0.85257301  0.83033781  0.40174785    -0.17500
C2709       C  0.85711697  0.83416827  0.38850678    -0.19700
C2710       C  0.85796235  0.84815490  0.38474065     0.20600
C2711       C  0.86229640  0.85206090  0.37139232    -0.32700
C2712       C  0.86268979  0.86606264  0.36746693     0.01300
C2713       C  0.85890166  0.87621280  0.37719457    -0.24100
C2714       C  0.84244105  0.86084804  0.43120837    -0.28600
C2715       C  0.84108900  0.84681921  0.43471319     0.06900
C2716       C  0.84431086  0.83667414  0.42481092    -0.27300
H2717       H  0.84477975  0.88676098  0.42138121     0.11700
H2718       H  0.85177677  0.89343100  0.39786644     0.12800
H2719       H  0.85189600  0.81946987  0.40434266     0.11900
H2720       H  0.85986530  0.82616860  0.38116083     0.11100
H2721       H  0.86504643  0.84415677  0.36394257     0.16500
H2722       H  0.85927626  0.88702580  0.37430442     0.12400
H2723       H  0.83982064  0.86867443  0.43879233     0.15300
H2724       H  0.84332088  0.82584721  0.42751827     0.15000
C2725       C  0.85410106  0.82809445  0.59902718    -0.17800
C2726       C  0.85120069  0.82451680  0.58530355    -0.20000
C2727       C  0.84982932  0.83478290  0.57510622     0.20600
C2728       C  0.85132779  0.84879239  0.57875063    -0.02900
C2729       C  0.85406581  0.85241642  0.59264696    -0.06000
C2730       C  0.85556787  0.84200233  0.60280283     0.20900
C2731       C  0.85527008  0.86644801  0.59637401     0.19100
C2732       C  0.85393140  0.87669750  0.58615899    -0.17500
C2733       C  0.85138901  0.87309323  0.57235411    -0.19700
C2734       C  0.85002592  0.85917966  0.56853440     0.20600
C2735       C  0.84718753  0.85547743  0.55474072    -0.32700
C2736       C  0.84537872  0.84153816  0.55110816     0.01300
C2737       C  0.84685518  0.83126993  0.56135763    -0.24100
C2738       C  0.85849135  0.84568474  0.61654536    -0.28600
C2739       C  0.85955255  0.85964567  0.62033598     0.06900
C2740       C  0.85781853  0.86997365  0.61023551    -0.27300
H2741       H  0.85515601  0.81997931  0.60670003     0.11700
H2742       H  0.85004401  0.81370866  0.58265923     0.12800
H2743       H  0.85487047  0.88751650  0.58884472     0.11900
H2744       H  0.85039812  0.88120574  0.56467244     0.11100
H2745       H  0.84595867  0.86345439  0.54694921     0.16500
H2746       H  0.84568181  0.82047997  0.55865447     0.12400
H2747       H  0.85969876  0.83770869  0.62435029     0.15300
H2748       H  0.85873669  0.88074804  0.61312760     0.15000
C2749       C  0.78156654  0.48180921  0.73051717    -0.17800
C2750       C  0.77087409  0.47939870  0.72102149    -0.20000
C2751       C  0.75725446  0.48358700  0.72398785     0.20600
C2752       C  0.75440017  0.49026324  0.73665524    -0.02900
C2753       C  0.76521855  0.49286611  0.74615408    -0.06000
C2754       C  0.77885211  0.48854015  0.74310587     0.20900
C2755       C  0.76237196  0.49977182  0.75871049     0.19100
C2756       C  0.74873931  0.50378471  0.76176454    -0.17500
C2757       C  0.73801163  0.50106840  0.75243293    -0.19700
C2758       C  0.74074327  0.49439367  0.73982859     0.20600
C2759       C  0.73006479  0.49193770  0.73029981    -0.32700
C2760       C  0.73281244  0.48553792  0.71750659     0.01300
C2761       C  0.74646558  0.48130442  0.71448790    -0.24100
C2762       C  0.78947752  0.49092691  0.75275372    -0.28600
C2763       C  0.78669707  0.49786034  0.76525215     0.06900
C2764       C  0.77316356  0.50240744  0.76806829    -0.27300
H2765       H  0.79197324  0.47843079  0.72799818     0.11700
H2766       H  0.77325893  0.47424510  0.71135475     0.12800
H2767       H  0.74636299  0.50900997  0.77139595     0.11900
H2768       H  0.72757431  0.50428080  0.75503972     0.11100
H2769       H  0.71966513  0.49533958  0.73276872     0.16500
H2770       H  0.74873614  0.47620234  0.70477400     0.12400
H2771       H  0.79992306  0.48743788  0.75053882     0.15300
H2772       H  0.77094239  0.50758428  0.77776948     0.15000
C2773       C  0.77363756  0.26318371  0.50060192    -0.17800
C2774       C  0.76422954  0.27404671  0.49899879    -0.20000
C2775       C  0.75198626  0.27214651  0.49141346     0.20600
C2776       C  0.74919642  0.25918228  0.48535613    -0.02900
C2777       C  0.75873808  0.24826704  0.48687161    -0.06000
C2778       C  0.77098636  0.25027158  0.49458341     0.20900
C2779       C  0.75602314  0.23536529  0.48066218     0.19100
C2780       C  0.74376795  0.23344509  0.47310214    -0.17500
C2781       C  0.73424033  0.24422427  0.47171899    -0.19700
C2782       C  0.73686337  0.25710858  0.47780747     0.20600
C2783       C  0.72734287  0.26793695  0.47652457    -0.32700
C2784       C  0.73003820  0.28086757  0.48255622     0.01300
C2785       C  0.74243663  0.28294349  0.48987284    -0.24100
C2786       C  0.78041047  0.23936236  0.49605663    -0.28600
C2787       C  0.77785084  0.22654558  0.48974027     0.06900
C2788       C  0.76562582  0.22462145  0.48208290    -0.27300
H2789       H  0.78301137  0.26489288  0.50652828     0.11700
H2790       H  0.76650922  0.28392524  0.50373068     0.12800
H2791       H  0.74153950  0.22359678  0.46828031     0.11900
H2792       H  0.72482003  0.24248658  0.46587581     0.11100
H2793       H  0.71787420  0.26631322  0.47072611     0.16500
H2794       H  0.74450612  0.29284709  0.49465269     0.12400
H2795       H  0.78988460  0.24096952  0.50184930     0.15300
H2796       H  0.76351715  0.21472434  0.47730629     0.15000
C2797       C  0.48399406  0.76994080  0.73591553    -0.17800
C2798       C  0.48464588  0.75997283  0.72547260    -0.20000
C2799       C  0.49386074  0.74881723  0.72655854     0.20600
C2800       C  0.50263643  0.74777240  0.73819832    -0.02900
C2801       C  0.50211966  0.75794994  0.74864535    -0.06000
C2802       C  0.49263628  0.76898891  0.74755743     0.20900
C2803       C  0.51097746  0.75699800  0.76023111     0.19100
C2804       C  0.52027535  0.74589390  0.76125044    -0.17500
C2805       C  0.52064174  0.73569211  0.75099646    -0.19700
C2806       C  0.51180821  0.73648466  0.73947899     0.20600
C2807       C  0.51188357  0.72614737  0.72928482    -0.32700
C2808       C  0.50315368  0.72714565  0.71767680     0.01300
C2809       C  0.49431929  0.73860201  0.71629493    -0.24100
C2810       C  0.49188056  0.77883040  0.75816585    -0.28600
C2811       C  0.50061102  0.77792765  0.76978596     0.06900
C2812       C  0.51025921  0.76706804  0.77066010    -0.27300
H2813       H  0.47669084  0.77837982  0.73490502     0.11700
H2814       H  0.47783628  0.76091503  0.71660520     0.12800
H2815       H  0.52716523  0.74501595  0.77006173     0.11900
H2816       H  0.52780202  0.72714442  0.75210534     0.11100
H2817       H  0.51881080  0.71739277  0.73030465     0.16500
H2818       H  0.48749728  0.73936087  0.70741328     0.12400
H2819       H  0.48456263  0.78727143  0.75729563     0.15300
H2820       H  0.51697487  0.76625163  0.77961243     0.15000
C2821       C  0.73868838  0.77135964  0.48409346    -0.17800
C2822       C  0.72803997  0.76171284  0.48581019    -0.20000
C2823       C  0.73004779  0.74997168  0.49410301     0.20600
C2824       C  0.74290296  0.74790428  0.50074466    -0.02900
C2825       C  0.75357215  0.75773306  0.49917449    -0.06000
C2826       C  0.75146960  0.76947733  0.49074163     0.20900
C2827       C  0.76631842  0.75582153  0.50606150     0.19100
C2828       C  0.76836979  0.74401936  0.51426497    -0.17500
C2829       C  0.75786205  0.73416476  0.51565008    -0.19700
C2830       C  0.74509533  0.73603081  0.50896155     0.20600
C2831       C  0.73447181  0.72625537  0.51035757    -0.32700
C2832       C  0.72160775  0.72834322  0.50387494     0.01300
C2833       C  0.71943894  0.74024635  0.49583514    -0.24100
C2834       C  0.76215616  0.77916495  0.48916945    -0.28600
C2835       C  0.77477524  0.77741593  0.49617826     0.06900
C2836       C  0.77677787  0.76575525  0.50463304    -0.27300
H2837       H  0.73690470  0.78033087  0.47761226     0.11700
H2838       H  0.71823766  0.76341876  0.48061835     0.12800
H2839       H  0.77811604  0.74239564  0.51958728     0.11900
H2840       H  0.75969782  0.72511335  0.52200378     0.11100
H2841       H  0.73613763  0.71713470  0.51666569     0.16500
H2842       H  0.70958196  0.74180589  0.49069309     0.12400
H2843       H  0.76054883  0.78822009  0.48275004     0.15300
H2844       H  0.78656127  0.76431581  0.50994982     0.15000
C2845       C  0.33221313  0.50871819  0.57983981    -0.17800
C2846       C  0.33083071  0.50749726  0.56551994    -0.20000
C2847       C  0.31862976  0.50211060  0.55980851     0.20600
C2848       C  0.30768307  0.49792657  0.56855778    -0.02900
C2849       C  0.30912069  0.49909096  0.58305073    -0.06000
C2850       C  0.32144132  0.50452384  0.58865987     0.20900
C2851       C  0.29829980  0.49478234  0.59190750     0.19100
C2852       C  0.28608395  0.48940406  0.58612982    -0.17500
C2853       C  0.28462570  0.48830049  0.57172316    -0.19700
C2854       C  0.29536908  0.49251691  0.56283554     0.20600
C2855       C  0.29412549  0.49130414  0.54836027    -0.32700
C2856       C  0.30513931  0.49528116  0.53963609     0.01300
C2857       C  0.31728757  0.50074442  0.54548234    -0.24100
C2858       C  0.32288013  0.50561720  0.60299894    -0.28600
C2859       C  0.31228815  0.50120308  0.61202075     0.06900
C2860       C  0.29994725  0.49584848  0.60635329    -0.27300
H2861       H  0.34175714  0.51289521  0.58402786     0.11700
H2862       H  0.33931506  0.51073915  0.55891080     0.12800
H2863       H  0.27766381  0.48603009  0.59275282     0.11900
H2864       H  0.27510720  0.48409198  0.56753430     0.11100
H2865       H  0.28475684  0.48700640  0.54392388     0.16500
H2866       H  0.32579948  0.50391578  0.53885736     0.12400
H2867       H  0.33242001  0.50989567  0.60702207     0.15300
H2868       H  0.29167263  0.49240655  0.61310924     0.15000
C2869       C  0.33359403  0.47951512  0.41350653    -0.17800
C2870       C  0.33250830  0.47997833  0.42791140    -0.20000
C2871       C  0.31950317  0.48135901  0.43425406     0.20600
C2872       C  0.30744366  0.48211850  0.42604834    -0.02900
C2873       C  0.30855019  0.48168421  0.41147683    -0.06000
C2874       C  0.32169353  0.48044460  0.40522817     0.20900
C2875       C  0.29655999  0.48265862  0.40317776     0.19100
C2876       C  0.28353613  0.48385615  0.40958211    -0.17500
C2877       C  0.28242928  0.48426653  0.42405522    -0.19700
C2878       C  0.29432616  0.48350358  0.43238588     0.20600
C2879       C  0.29339173  0.48433005  0.44690500    -0.32700
C2880       C  0.30543975  0.48388300  0.45510766     0.01300
C2881       C  0.31841520  0.48221382  0.44866245    -0.24100
C2882       C  0.32279637  0.48032259  0.39080072    -0.28600
C2883       C  0.31097926  0.48156081  0.38233471     0.06900
C2884       C  0.29784047  0.48259022  0.38865133    -0.27300
H2885       H  0.34376683  0.47854794  0.40883247     0.11700
H2886       H  0.34185508  0.47936854  0.43409078     0.12800
H2887       H  0.27420600  0.48458328  0.40339350     0.11900
H2888       H  0.27226810  0.48530827  0.42873061     0.11100
H2889       H  0.28334586  0.48560642  0.45177638     0.16500
H2890       H  0.32776999  0.48176798  0.45485370     0.12400
H2891       H  0.33300936  0.47940963  0.38628640     0.15300
H2892       H  0.28862198  0.48348687  0.38233580     0.15000
C2893       C  0.27996603  0.56222371  0.49889246    -0.17800
C2894       C  0.28072110  0.57668778  0.49850175    -0.20000
C2895       C  0.29271796  0.58333933  0.49361164     0.20600
C2896       C  0.30394188  0.57529479  0.48881715    -0.02900
C2897       C  0.30317049  0.56072729  0.48919034    -0.06000
C2898       C  0.29118209  0.55413437  0.49438957     0.20900
C2899       C  0.31455077  0.55277826  0.48465928     0.19100
C2900       C  0.32641070  0.55937037  0.47944983    -0.17500
C2901       C  0.32717726  0.57376333  0.47908982    -0.19700
C2902       C  0.31609330  0.58179047  0.48392913     0.20600
C2903       C  0.31711923  0.59619561  0.48424052    -0.32700
C2904       C  0.30618506  0.60431759  0.48935637     0.01300
C2905       C  0.29385625  0.59784845  0.49373300    -0.24100
C2906       C  0.29080414  0.53961336  0.49530349    -0.28600
C2907       C  0.30236323  0.53168662  0.49127043     0.06900
C2908       C  0.31406171  0.53837811  0.48572655    -0.27300
H2909       H  0.27066074  0.55736135  0.50289849     0.11700
H2910       H  0.27199545  0.58266872  0.50220492     0.12800
H2911       H  0.33519621  0.55339126  0.47586360     0.11900
H2912       H  0.33653743  0.57861763  0.47523143     0.11100
H2913       H  0.32653360  0.60108261  0.48056710     0.16500
H2914       H  0.28538815  0.60404686  0.49767809     0.12400
H2915       H  0.28174005  0.53453122  0.49958776     0.15300
H2916       H  0.32294365  0.53236466  0.48243083     0.15000
C2917       C  0.29021038  0.40054504  0.50164737    -0.17800
C2918       C  0.28866076  0.41466254  0.49888860    -0.20000
C2919       C  0.29872966  0.42415285  0.50328695     0.20600
C2920       C  0.31045384  0.41935784  0.51059304    -0.02900
C2921       C  0.31194645  0.40514032  0.51348733    -0.06000
C2922       C  0.30181891  0.39567637  0.50892627     0.20900
C2923       C  0.32363914  0.40039850  0.52084261     0.19100
C2924       C  0.33368517  0.40986887  0.52530617    -0.17500
C2925       C  0.33227329  0.42392698  0.52234267    -0.19700
C2926       C  0.32073782  0.42875165  0.51494591     0.20600
C2927       C  0.31933348  0.44280875  0.51182223    -0.32700
C2928       C  0.30765562  0.44769751  0.50462916     0.01300
C2929       C  0.29732936  0.43833068  0.50047703    -0.24100
C2930       C  0.30358480  0.38150677  0.51153266    -0.28600
C2931       C  0.31537441  0.37666288  0.51862723     0.06900
C2932       C  0.32520869  0.38625510  0.52344008    -0.27300
H2933       H  0.28233981  0.39342624  0.49805407     0.11700
H2934       H  0.27961041  0.41815125  0.49324462     0.12800
H2935       H  0.34272479  0.40638064  0.53098824     0.11900
H2936       H  0.34021924  0.43102226  0.52580357     0.11100
H2937       H  0.32725924  0.44999697  0.51517398     0.16500
H2938       H  0.28833117  0.44204924  0.49488625     0.12400
H2939       H  0.29593264  0.37427669  0.50772164     0.15300
H2940       H  0.33422844  0.38275086  0.52912520     0.15000
C2941       C  0.48316545  0.67431527  0.57672329    -0.17800
C2942       C  0.48272240  0.67579093  0.56235560    -0.20000
C2943       C  0.48619721  0.68843085  0.55615488     0.20600
C2944       C  0.48984837  0.69981729  0.56447890    -0.02900
C2945       C  0.49033368  0.69831128  0.57901832    -0.06000
C2946       C  0.48711812  0.68545111  0.58510038     0.20900
C2947       C  0.49431664  0.70954294  0.58742811     0.19100
C2948       C  0.49748321  0.72227734  0.58117863    -0.17500
C2949       C  0.49699706  0.72377767  0.56673077    -0.19700
C2950       C  0.49334092  0.71256903  0.55826436     0.20600
C2951       C  0.49350122  0.71371911  0.54371355    -0.32700
C2952       C  0.49039194  0.70219215  0.53539841     0.01300
C2953       C  0.48645700  0.68971448  0.54174592    -0.24100
C2954       C  0.48818391  0.68380129  0.59943468    -0.28600
C2955       C  0.49259283  0.69474336  0.60791184     0.06900
C2956       C  0.49536842  0.70770960  0.60186883    -0.27300
H2957       H  0.48062976  0.66439087  0.58127265     0.11700
H2958       H  0.47986337  0.66697435  0.55607460     0.12800
H2959       H  0.50052454  0.73103315  0.58745352     0.11900
H2960       H  0.49968447  0.73365388  0.56216739     0.11100
H2961       H  0.49656772  0.72336735  0.53889113     0.16500
H2962       H  0.48389352  0.68081866  0.53543623     0.12400
H2963       H  0.48566159  0.67386626  0.60394350     0.15300
H2964       H  0.49874870  0.71622072  0.60830544     0.15000
C2965       C  0.50494637  0.72194046  0.41902932    -0.17800
C2966       C  0.50664428  0.72039300  0.40467936    -0.20000
C2967       C  0.50830331  0.70722016  0.39882083     0.20600
C2968       C  0.50834499  0.69552243  0.40756165    -0.02900
C2969       C  0.50663419  0.69707737  0.42201403    -0.06000
C2970       C  0.50487681  0.71034543  0.42779998     0.20900
C2971       C  0.50659849  0.68531685  0.43064894     0.19100
C2972       C  0.50832073  0.67215601  0.42486212    -0.17500
C2973       C  0.51000195  0.67062268  0.41058691    -0.19700
C2974       C  0.51000247  0.68222752  0.40186925     0.20600
C2975       C  0.51153755  0.68068622  0.38754688    -0.32700
C2976       C  0.51145339  0.69222275  0.37864438     0.01300
C2977       C  0.50985137  0.70550523  0.38440639    -0.24100
C2978       C  0.50299741  0.71173453  0.44221103    -0.28600
C2979       C  0.50285776  0.69999021  0.45085530     0.06900
C2980       C  0.50474756  0.68685395  0.44492659    -0.27300
H2981       H  0.50363299  0.73221324  0.42326128     0.11700
H2982       H  0.50660485  0.72950847  0.39815298     0.12800
H2983       H  0.50831479  0.66302950  0.43137858     0.11900
H2984       H  0.51126447  0.66034132  0.40635597     0.11100
H2985       H  0.51257919  0.67037123  0.38340372     0.16500
H2986       H  0.50982722  0.71450456  0.37772883     0.12400
H2987       H  0.50156798  0.72190452  0.44665925     0.15300
H2988       H  0.50468478  0.67770898  0.45142384     0.15000
C2989       C  0.58426013  0.72515491  0.50024647    -0.17800
C2990       C  0.56990852  0.72619033  0.49806692    -0.20000
C2991       C  0.56110457  0.71502435  0.50114658     0.20600
C2992       C  0.56684187  0.70286086  0.50684665    -0.02900
C2993       C  0.58125168  0.70187547  0.50916453    -0.06000
C2994       C  0.59007455  0.71296527  0.50562869     0.20900
C2995       C  0.58684362  0.68963086  0.51474809     0.19100
C2996       C  0.57809263  0.67858523  0.51818372    -0.17500
C2997       C  0.56389447  0.67950025  0.51576408    -0.19700
C2998       C  0.55822539  0.69151606  0.50998249     0.20600
C2999       C  0.54409522  0.69221330  0.50708070    -0.32700
C3000       C  0.53823636  0.70409372  0.50110126     0.01300
C3001       C  0.54674824  0.71563051  0.49840234    -0.24100
C3002       C  0.60453459  0.71146286  0.50717056    -0.28600
C3003       C  0.61018200  0.69900205  0.51225353     0.06900
C3004       C  0.60113724  0.68839794  0.51646206    -0.27300
H3005       H  0.59083318  0.73382722  0.49754119     0.11700
H3006       H  0.56572739  0.73564396  0.49375137     0.12800
H3007       H  0.58226708  0.66912327  0.52249621     0.11900
H3008       H  0.55736018  0.67073552  0.51827018     0.11100
H3009       H  0.53762592  0.68335347  0.50944614     0.16500
H3010       H  0.54230091  0.72486089  0.49386147     0.12400
H3011       H  0.61133432  0.71979675  0.50401426     0.15300
H3012       H  0.60514800  0.67891372  0.52081309     0.15000
C3013       C  0.40666988  0.71530453  0.49002138    -0.17800
C3014       C  0.42100231  0.71770613  0.49020252    -0.20000
C3015       C  0.43038105  0.70679375  0.48821434     0.20600
C3016       C  0.42521681  0.69336705  0.48579313    -0.02900
C3017       C  0.41077329  0.69094512  0.48562613    -0.06000
C3018       C  0.40143586  0.70194061  0.48786235     0.20900
C3019       C  0.40570096  0.67746029  0.48346043     0.19100
C3020       C  0.41502161  0.66657997  0.48119330    -0.17500
C3021       C  0.42929373  0.66897013  0.48136742    -0.19700
C3022       C  0.43447787  0.68228389  0.48379230     0.20600
C3023       C  0.44877170  0.68461306  0.48451401    -0.32700
C3024       C  0.45407811  0.69787726  0.48725840     0.01300
C3025       C  0.44480073  0.70898818  0.48887636    -0.24100
C3026       C  0.38707817  0.69930554  0.48817967    -0.28600
C3027       C  0.38199030  0.68577792  0.48644673     0.06900
C3028       C  0.39141200  0.67499659  0.48384501    -0.27300
H3029       H  0.39967572  0.72388673  0.49173152     0.11700
H3030       H  0.42475338  0.72808723  0.49204952     0.12800
H3031       H  0.41127422  0.65617422  0.47946373     0.11900
H3032       H  0.43628697  0.66036333  0.47976871     0.11100
H3033       H  0.45578308  0.67597447  0.48314261     0.16500
H3034       H  0.44876883  0.71923850  0.49100596     0.12400
H3035       H  0.37992817  0.70769606  0.49017782     0.15300
H3036       H  0.38766578  0.66458999  0.48217050     0.15000
C3037       C  0.72321989  0.48283946  0.58251036    -0.17800
C3038       C  0.72446687  0.48661351  0.56853359    -0.20000
C3039       C  0.71263407  0.48951270  0.56058351     0.20600
C3040       C  0.69941396  0.48847146  0.56679166    -0.02900
C3041       C  0.69815752  0.48463697  0.58087082    -0.06000
C3042       C  0.71011639  0.48188046  0.58880195     0.20900
C3043       C  0.68492353  0.48367004  0.58702126     0.19100
C3044       C  0.67307674  0.48647704  0.57909470    -0.17500
C3045       C  0.67431644  0.49026793  0.56518057    -0.19700
C3046       C  0.68742225  0.49131417  0.55895861     0.20600
C3047       C  0.68869525  0.49515617  0.54503126    -0.32700
C3048       C  0.70179825  0.49624609  0.53868744     0.01300
C3049       C  0.71375600  0.49341934  0.54656178    -0.24100
C3050       C  0.70875143  0.47835218  0.60289054    -0.28600
C3051       C  0.69556697  0.47751635  0.60914255     0.06900
C3052       C  0.68372447  0.48008303  0.60103326    -0.27300
H3053       H  0.73252218  0.48073075  0.58842039     0.11700
H3054       H  0.73470136  0.48731378  0.56395442     0.12800
H3055       H  0.66283944  0.48579023  0.58367472     0.11900
H3056       H  0.66501009  0.49241319  0.55928569     0.11100
H3057       H  0.67939427  0.49729754  0.53911785     0.16500
H3058       H  0.72389764  0.49415650  0.54177558     0.12400
H3059       H  0.71795574  0.47629674  0.60896436     0.15300
H3060       H  0.67350502  0.47965107  0.60564602     0.15000
C3061       C  0.67566474  0.52811626  0.41513745    -0.17800
C3062       C  0.67738881  0.52734456  0.42948060    -0.20000
C3063       C  0.68986208  0.52248901  0.43512463     0.20600
C3064       C  0.70091921  0.51888692  0.42627370    -0.02900
C3065       C  0.69915564  0.51962571  0.41175619    -0.06000
C3066       C  0.68637210  0.52401627  0.40620875     0.20900
C3067       C  0.70998254  0.51553214  0.40281941     0.19100
C3068       C  0.72266272  0.51122503  0.40851854    -0.17500
C3069       C  0.72442457  0.51052351  0.42292676    -0.19700
C3070       C  0.71353545  0.51408610  0.43191128     0.20600
C3071       C  0.71481375  0.51245477  0.44637174    -0.32700
C3072       C  0.70351650  0.51532108  0.45516630     0.01300
C3073       C  0.69124482  0.52070229  0.44944605    -0.24100
C3074       C  0.68431153  0.52380029  0.39185679    -0.28600
C3075       C  0.69476693  0.51910494  0.38286068     0.06900
C3076       C  0.70775170  0.51536518  0.38839998    -0.27300
H3077       H  0.66582014  0.53160526  0.41102614     0.11700
H3078       H  0.66884477  0.53024628  0.43616005     0.12800
H3079       H  0.73112559  0.50812165  0.40183478     0.11900
H3080       H  0.73421527  0.50688730  0.42703946     0.11100
H3081       H  0.72433116  0.50836397  0.45069958     0.16500
H3082       H  0.68256877  0.52317338  0.45614574     0.12400
H3083       H  0.67439412  0.52704057  0.38773540     0.15300
H3084       H  0.71591372  0.51178146  0.38159036     0.15000
C3085       C  0.72447929  0.41802414  0.49239367    -0.17800
C3086       C  0.72590545  0.43241884  0.49339751    -0.20000
C3087       C  0.71464568  0.44117037  0.49053474     0.20600
C3088       C  0.70184653  0.43529052  0.48660265    -0.02900
C3089       C  0.70040976  0.42081535  0.48561973    -0.06000
C3090       C  0.71176425  0.41209942  0.48851505     0.20900
C3091       C  0.68756030  0.41508614  0.48175267     0.19100
C3092       C  0.67627129  0.42374454  0.47891962    -0.17500
C3093       C  0.67768213  0.43802760  0.47989825    -0.19700
C3094       C  0.69040012  0.44386364  0.48372800     0.20600
C3095       C  0.69173104  0.45814678  0.48491547    -0.32700
C3096       C  0.70429318  0.46418763  0.48910613     0.01300
C3097       C  0.71582539  0.45564665  0.49173037    -0.24100
C3098       C  0.71014767  0.39765967  0.48750013    -0.28600
C3099       C  0.69729395  0.39189480  0.48363284     0.06900
C3100       C  0.68612993  0.40078836  0.48074608    -0.27300
H3101       H  0.73332472  0.41152250  0.49467756     0.11700
H3102       H  0.73580924  0.43670275  0.49645981     0.12800
H3103       H  0.66632957  0.41946385  0.47596175     0.11900
H3104       H  0.66879895  0.44451598  0.47770572     0.11100
H3105       H  0.68278909  0.46458241  0.48277260     0.16500
H3106       H  0.72553096  0.46020154  0.49503713     0.12400
H3107       H  0.71884223  0.39097448  0.48980146     0.15300
H3108       H  0.67621136  0.39669943  0.47756205     0.15000
C3109       C  0.71803797  0.59434034  0.51119198    -0.17800
C3110       C  0.72030259  0.58008303  0.51001931    -0.20000
C3111       C  0.70911134  0.57097454  0.50826133     0.20600
C3112       C  0.69550084  0.57633433  0.50782945    -0.02900
C3113       C  0.69322677  0.59068583  0.50896118    -0.06000
C3114       C  0.70454229  0.59975730  0.51059858     0.20900
C3115       C  0.67961160  0.59594701  0.50832834     0.19100
C3116       C  0.66839286  0.58689898  0.50668384    -0.17500
C3117       C  0.67063292  0.57271676  0.50561029    -0.19700
C3118       C  0.68412776  0.56737491  0.50611906     0.20600
C3119       C  0.68639147  0.55321796  0.50474280    -0.32700
C3120       C  0.69989280  0.54770943  0.50486423     0.01300
C3121       C  0.71124683  0.55665385  0.50674756    -0.24100
C3122       C  0.70213931  0.61405719  0.51154935    -0.28600
C3123       C  0.68855063  0.61936954  0.51087059     0.06900
C3124       C  0.67738929  0.61017229  0.50925891    -0.27300
H3125       H  0.72685889  0.60114157  0.51247962     0.11700
H3126       H  0.73082020  0.57618995  0.51041107     0.12800
H3127       H  0.65787916  0.59079682  0.50618626     0.11900
H3128       H  0.66180475  0.56592520  0.50428650     0.11100
H3129       H  0.67752157  0.54649740  0.50330671     0.16500
H3130       H  0.72168306  0.55252233  0.50687667     0.12400
H3131       H  0.71084355  0.62098923  0.51286586     0.15300
H3132       H  0.66688922  0.61401366  0.50853299     0.15000
C3133       C  0.51214504  0.33082975  0.57412213    -0.17800
C3134       C  0.51151683  0.32929496  0.55976041    -0.20000
C3135       C  0.51172783  0.31609753  0.55379995     0.20600
C3136       C  0.51271415  0.30431703  0.56234918    -0.02900
C3137       C  0.51332285  0.30587026  0.57688137    -0.06000
C3138       C  0.51298038  0.31919110  0.58275224     0.20900
C3139       C  0.51409628  0.29412279  0.58552324     0.19100
C3140       C  0.51449486  0.28093252  0.57950041    -0.17500
C3141       C  0.51393163  0.27939108  0.56507238    -0.19700
C3142       C  0.51293975  0.29100918  0.55639646     0.20600
C3143       C  0.51203886  0.28958182  0.54191032    -0.32700
C3144       C  0.51088472  0.30131831  0.53334585     0.01300
C3145       C  0.51083740  0.31452062  0.53943314    -0.24100
C3146       C  0.51328107  0.32068873  0.59715850    -0.28600
C3147       C  0.51382432  0.30907248  0.60592530     0.06900
C3148       C  0.51430574  0.29579124  0.60000710    -0.27300
H3149       H  0.51187968  0.34112910  0.57848844     0.11700
H3150       H  0.51078151  0.33843816  0.55331236     0.12800
H3151       H  0.51514315  0.27179182  0.58595646     0.11900
H3152       H  0.51416355  0.26909401  0.56070399     0.11100
H3153       H  0.51212433  0.27936758  0.53733683     0.16500
H3154       H  0.51000126  0.32366306  0.53298870     0.12400
H3155       H  0.51272397  0.33097502  0.60149214     0.15300
H3156       H  0.51483794  0.28676934  0.60663836     0.15000
C3157       C  0.50804884  0.32606704  0.40629404    -0.17800
C3158       C  0.50970865  0.32466659  0.42056706    -0.20000
C3159       C  0.50667997  0.31208780  0.42711177     0.20600
C3160       C  0.50220981  0.30068625  0.41922994    -0.02900
C3161       C  0.50055862  0.30209520  0.40477224    -0.06000
C3162       C  0.50335780  0.31490158  0.39836138     0.20900
C3163       C  0.49590005  0.29081211  0.39678214     0.19100
C3164       C  0.49309757  0.27816432  0.40338168    -0.17500
C3165       C  0.49471776  0.27677052  0.41776432    -0.19700
C3166       C  0.49918271  0.28799562  0.42581642     0.20600
C3167       C  0.50044653  0.28689349  0.44032936    -0.32700
C3168       C  0.50453072  0.29841417  0.44822371     0.01300
C3169       C  0.50782496  0.31085622  0.44145715    -0.24100
C3170       C  0.50117864  0.31646092  0.38415863    -0.28600
C3171       C  0.49621468  0.30544509  0.37613573     0.06900
C3172       C  0.49386878  0.29251989  0.38242311    -0.27300
H3173       H  0.51027770  0.33594103  0.40147839     0.11700
H3174       H  0.51319665  0.33348521  0.42651896     0.12800
H3175       H  0.48951068  0.26938322  0.39743883     0.11900
H3176       H  0.49235018  0.26694513  0.42260633     0.11100
H3177       H  0.49792730  0.27725572  0.44547689     0.16500
H3178       H  0.51119241  0.31973497  0.44740340     0.12400
H3179       H  0.50328940  0.32636435  0.37934523     0.15300
H3180       H  0.49002595  0.28399387  0.37626298     0.15000
C3181       C  0.42122542  0.27488241  0.50538296    -0.17800
C3182       C  0.43544276  0.27414970  0.50252779    -0.20000
C3183       C  0.44300114  0.28617122  0.49947840     0.20600
C3184       C  0.43609589  0.29902093  0.49903847    -0.02900
C3185       C  0.42181948  0.29977143  0.50199068    -0.06000
C3186       C  0.41434898  0.28766206  0.50527912     0.20900
C3187       C  0.41508562  0.31270057  0.50188779     0.19100
C3188       C  0.42251038  0.32468203  0.49849634    -0.17500
C3189       C  0.43662536  0.32393417  0.49551315    -0.19700
C3190       C  0.44350330  0.31119100  0.49592792     0.20600
C3191       C  0.45774218  0.31051089  0.49360138    -0.32700
C3192       C  0.46483484  0.29786317  0.49449283     0.01300
C3193       C  0.45737244  0.28566057  0.49717241    -0.24100
C3194       C  0.40021158  0.28861405  0.50863464    -0.28600
C3195       C  0.39360799  0.30155429  0.50894218     0.06900
C3196       C  0.40107851  0.31348731  0.50537329    -0.27300
H3197       H  0.41565087  0.26548775  0.50784776     0.11700
H3198       H  0.44056010  0.26418872  0.50286300     0.12800
H3199       H  0.41742797  0.33467273  0.49831366     0.11900
H3200       H  0.44220480  0.33334014  0.49309139     0.11100
H3201       H  0.46334852  0.31996284  0.49139001     0.16500
H3202       H  0.46276595  0.27585713  0.49779109     0.12400
H3203       H  0.39446556  0.27938602  0.51135370     0.15300
H3204       H  0.39598327  0.32346668  0.50524395     0.15000
C3205       C  0.58752248  0.32994087  0.46936735    -0.17800
C3206       C  0.57335382  0.32805869  0.47148451    -0.20000
C3207       C  0.56838443  0.31565669  0.47712669     0.20600
C3208       C  0.57767919  0.30491986  0.48043249    -0.02900
C3209       C  0.59199694  0.30685680  0.47836894    -0.06000
C3210       C  0.59690451  0.31947884  0.47293187     0.20900
C3211       C  0.60140332  0.29630313  0.48199133     0.19100
C3212       C  0.59634881  0.28377392  0.48733517    -0.17500
C3213       C  0.58210247  0.28180937  0.48929409    -0.19700
C3214       C  0.57269172  0.29236019  0.48599860     0.20600
C3215       C  0.55841659  0.29068598  0.48831668    -0.32700
C3216       C  0.54920118  0.30152080  0.48533036     0.01300
C3217       C  0.55426967  0.31390185  0.47964541    -0.24100
C3218       C  0.61113400  0.32159513  0.47147511    -0.28600
C3219       C  0.62062856  0.31140401  0.47560851     0.06900
C3220       C  0.61569390  0.29862921  0.48055287    -0.27300
H3221       H  0.59116463  0.33967483  0.46514601     0.11700
H3222       H  0.56629719  0.33634701  0.46884037     0.12800
H3223       H  0.60342305  0.27555325  0.49013956     0.11900
H3224       H  0.57845918  0.27209366  0.49354653     0.11100
H3225       H  0.55452412  0.28110318  0.49266316     0.16500
H3226       H  0.54719622  0.32222272  0.47710831     0.12400
H3227       H  0.61478758  0.33134676  0.46733040     0.15300
H3228       H  0.62292478  0.29069557  0.48375212     0.15000
C3229       C  0.48061357  0.41743395  0.32319146    -0.17800
C3230       C  0.48352847  0.43152712  0.32213538    -0.20000
C3231       C  0.48792333  0.43721959  0.30949421     0.20600
C3232       C  0.48931405  0.42867288  0.29776442    -0.02900
C3233       C  0.48646278  0.41439747  0.29886194    -0.06000
C3234       C  0.48214163  0.40878215  0.31164706     0.20900
C3235       C  0.48806722  0.40574131  0.28722970     0.19100
C3236       C  0.49229085  0.41150643  0.27454223    -0.17500
C3237       C  0.49500613  0.42568797  0.27342054    -0.19700
C3238       C  0.49360861  0.43436826  0.28498015     0.20600
C3239       C  0.49639618  0.44861850  0.28400281    -0.32700
C3240       C  0.49507857  0.45718754  0.29570725     0.01300
C3241       C  0.49089123  0.45132914  0.30840773    -0.24100
C3242       C  0.47969123  0.39457277  0.31278895    -0.28600
C3243       C  0.48179584  0.38570535  0.30142574     0.06900
C3244       C  0.48571197  0.39145741  0.28857258    -0.27300
H3245       H  0.47730248  0.41327336  0.33308560     0.11700
H3246       H  0.48236667  0.43797878  0.33122632     0.12800
H3247       H  0.49357061  0.40502926  0.26548840     0.11900
H3248       H  0.49827591  0.42985521  0.26351742     0.11100
H3249       H  0.49959451  0.45301653  0.27417159     0.16500
H3250       H  0.48971519  0.45780456  0.31748558     0.12400
H3251       H  0.47639491  0.39046021  0.32268655     0.15300
H3252       H  0.48731785  0.38483788  0.27968946     0.15000
C3253       C  0.50413428  0.58361152  0.32303108    -0.17800
C3254       C  0.50267606  0.56933710  0.32177484    -0.20000
C3255       C  0.50338246  0.56304460  0.30872177     0.20600
C3256       C  0.50544355  0.57118269  0.29677136    -0.02900
C3257       C  0.50687565  0.58565458  0.29804010    -0.06000
C3258       C  0.50628729  0.59183007  0.31124955     0.20900
C3259       C  0.50893249  0.59391856  0.28614951     0.19100
C3260       C  0.50953342  0.58755948  0.27308212    -0.17500
C3261       C  0.50816583  0.57317736  0.27182719    -0.19700
C3262       C  0.50614501  0.56486327  0.28361269     0.20600
C3263       C  0.50491878  0.55037304  0.28254143    -0.32700
C3264       C  0.50303782  0.54219915  0.29451009     0.01300
C3265       C  0.50216863  0.54872234  0.30750266    -0.24100
C3266       C  0.50787274  0.60612089  0.31252520    -0.28600
C3267       C  0.51000147  0.61451339  0.30080687     0.06900
C3268       C  0.51040455  0.60834263  0.28759166    -0.27300
H3269       H  0.50362227  0.58822398  0.33323873     0.11700
H3270       H  0.50107155  0.56319945  0.33104096     0.12800
H3271       H  0.51111095  0.59370688  0.26382268     0.11900
H3272       H  0.50872842  0.56855339  0.26163033     0.11100
H3273       H  0.50556055  0.54548358  0.27247104     0.16500
H3274       H  0.50062544  0.54262763  0.31681229     0.12400
H3275       H  0.50724380  0.61070037  0.32273171     0.15300
H3276       H  0.51206276  0.61470606  0.27849288     0.15000
C3277       C  0.58326809  0.49810564  0.32650394    -0.17800
C3278       C  0.56893887  0.49739591  0.32475942    -0.20000
C3279       C  0.56318152  0.49729567  0.31143328     0.20600
C3280       C  0.57191471  0.49777437  0.29971838    -0.02900
C3281       C  0.58643911  0.49849324  0.30148915    -0.06000
C3282       C  0.59207559  0.49872969  0.31495041     0.20900
C3283       C  0.59528937  0.49910056  0.28984601     0.19100
C3284       C  0.58945785  0.49883590  0.27650899    -0.17500
C3285       C  0.57502979  0.49814647  0.27474722    -0.19700
C3286       C  0.56613722  0.49769867  0.28628661     0.20600
C3287       C  0.55160292  0.49737679  0.28469062    -0.32700
C3288       C  0.54284509  0.49713722  0.29640171     0.01300
C3289       C  0.54881351  0.49692411  0.30969640    -0.24100
C3290       C  0.60641729  0.49970684  0.31671481    -0.28600
C3291       C  0.61541787  0.50059832  0.30525593     0.06900
C3292       C  0.60975388  0.50012031  0.29179074    -0.27300
H3293       H  0.58746222  0.49826605  0.33691064     0.11700
H3294       H  0.56234539  0.49702709  0.33385186     0.12800
H3295       H  0.59605465  0.49926342  0.26742511     0.11900
H3296       H  0.57082320  0.49806498  0.26434751     0.11100
H3297       H  0.54713828  0.49752710  0.27439568     0.16500
H3298       H  0.54225424  0.49669631  0.31882285     0.12400
H3299       H  0.61050070  0.49973850  0.32714492     0.15300
H3300       H  0.61652574  0.50078475  0.28285446     0.15000
C3301       C  0.41597070  0.50865620  0.32184959    -0.17800
C3302       C  0.43030640  0.50968975  0.32031834    -0.20000
C3303       C  0.43660982  0.50616934  0.30770859     0.20600
C3304       C  0.42841876  0.50191442  0.29641149    -0.02900
C3305       C  0.41391333  0.50088926  0.29796344    -0.06000
C3306       C  0.40773805  0.50410109  0.31081761     0.20900
C3307       C  0.40564562  0.49633545  0.28681282     0.19100
C3308       C  0.41198325  0.49312118  0.27410809    -0.17500
C3309       C  0.42640429  0.49411266  0.27257948    -0.19700
C3310       C  0.43474460  0.49835246  0.28370364     0.20600
C3311       C  0.44929160  0.49874791  0.28252502    -0.32700
C3312       C  0.45749834  0.50252030  0.29396116     0.01300
C3313       C  0.45101500  0.50649164  0.30638941    -0.24100
C3314       C  0.39348299  0.50235286  0.31256373    -0.28600
C3315       C  0.38521430  0.49735663  0.30171297     0.06900
C3316       C  0.39127294  0.49470357  0.28871680    -0.27300
H3317       H  0.41133303  0.51121032  0.33178367     0.11700
H3318       H  0.43647309  0.51300764  0.32903810     0.12800
H3319       H  0.40582030  0.48963790  0.26543800     0.11900
H3320       H  0.43105961  0.49136160  0.26272349     0.11100
H3321       H  0.45421866  0.49567047  0.27290212     0.16500
H3322       H  0.45720603  0.50956837  0.31520041     0.12400
H3323       H  0.38884084  0.50473112  0.32253013     0.15300
H3324       H  0.38493902  0.49085754  0.28031809     0.15000
C3325       C  0.49939283  0.57468117  0.71427725    -0.17800
C3326       C  0.49862461  0.58907867  0.71280775    -0.20000
C3327       C  0.50258349  0.59548369  0.70034201     0.20600
C3328       C  0.50749623  0.58725955  0.68931133    -0.02900
C3329       C  0.50826991  0.57275486  0.69079020    -0.06000
C3330       C  0.50412414  0.56640072  0.70330724     0.20900
C3331       C  0.51299210  0.56460827  0.67964160     0.19100
C3332       C  0.51715282  0.57097142  0.66724971    -0.17500
C3333       C  0.51640894  0.58529992  0.66579776    -0.19700
C3334       C  0.51148272  0.59349791  0.67670922     0.20600
C3335       C  0.51034479  0.60781278  0.67512919    -0.32700
C3336       C  0.50524887  0.61613034  0.68593209     0.01300
C3337       C  0.50155760  0.60990864  0.69861495    -0.24100
C3338       C  0.50452775  0.55189313  0.70449624    -0.28600
C3339       C  0.50883475  0.54371010  0.69322974     0.06900
C3340       C  0.51323164  0.55021408  0.68093764    -0.27300
H3341       H  0.49616112  0.57000968  0.72396600     0.11700
H3342       H  0.49483021  0.59519802  0.72139768     0.12800
H3343       H  0.52084707  0.56484767  0.65861687     0.11900
H3344       H  0.51955615  0.58996282  0.65607339     0.11100
H3345       H  0.51350198  0.61246590  0.66541059     0.16500
H3346       H  0.49759860  0.61622033  0.70699056     0.12400
H3347       H  0.50109393  0.54697476  0.71399657     0.15300
H3348       H  0.51669939  0.54403553  0.67224087     0.15000
C3349       C  0.58962400  0.48567035  0.66507916    -0.17800
C3350       C  0.57553814  0.48871977  0.66610349    -0.20000
C3351       C  0.56954239  0.49147734  0.67904120     0.20600
C3352       C  0.57778167  0.49117769  0.69109297    -0.02900
C3353       C  0.59207034  0.48814994  0.69004510    -0.06000
C3354       C  0.59794976  0.48537477  0.67697069     0.20900
C3355       C  0.60045439  0.48791651  0.70201925     0.19100
C3356       C  0.59436687  0.49064329  0.71496904    -0.17500
C3357       C  0.58014932  0.49355159  0.71602520    -0.19700
C3358       C  0.57174394  0.49384680  0.70414730     0.20600
C3359       C  0.55742397  0.49663802  0.70505035    -0.32700
C3360       C  0.54915858  0.49687552  0.69301451     0.01300
C3361       C  0.55540352  0.49439498  0.68007725    -0.24100
C3362       C  0.61207583  0.48241036  0.67591344    -0.28600
C3363       C  0.62063845  0.48216515  0.68770486     0.06900
C3364       C  0.61473144  0.48497586  0.70077909    -0.27300
H3365       H  0.59401612  0.48355510  0.65496438     0.11700
H3366       H  0.56931785  0.48888376  0.65676510     0.12800
H3367       H  0.60059906  0.49050512  0.72429514     0.11900
H3368       H  0.57572775  0.49556932  0.72614497     0.11100
H3369       H  0.55272544  0.49851316  0.71507705     0.16500
H3370       H  0.54919799  0.49446793  0.67072251     0.12400
H3371       H  0.61637933  0.48055332  0.66573411     0.15300
H3372       H  0.62117740  0.48478554  0.70995694     0.15000
C3373       C  0.50319432  0.41752127  0.66298074    -0.17800
C3374       C  0.50276750  0.43184588  0.66445582    -0.20000
C3375       C  0.50343958  0.43785555  0.67764310     0.20600
C3376       C  0.50439841  0.42938070  0.68949815    -0.02900
C3377       C  0.50480090  0.41486499  0.68800452    -0.06000
C3378       C  0.50427886  0.40897022  0.67467053     0.20900
C3379       C  0.50583287  0.40627660  0.69979571     0.19100
C3380       C  0.50637585  0.41235778  0.71299546    -0.17500
C3381       C  0.50602040  0.42677462  0.71447715    -0.19700
C3382       C  0.50509576  0.43540387  0.70279027     0.20600
C3383       C  0.50503402  0.44991483  0.70409789    -0.32700
C3384       C  0.50431392  0.45841485  0.69224015     0.01300
C3385       C  0.50335053  0.45221490  0.67909868    -0.24100
C3386       C  0.50495109  0.39462724  0.67317721    -0.28600
C3387       C  0.50618947  0.38590530  0.68478806     0.06900
C3388       C  0.50644907  0.39181254  0.69812634    -0.27300
H3389       H  0.50276048  0.41312767  0.65267265     0.11700
H3390       H  0.50201618  0.43823673  0.65525856     0.12800
H3391       H  0.50716463  0.40596341  0.72218275     0.11900
H3392       H  0.50654997  0.43117769  0.72477333     0.11100
H3393       H  0.50575037  0.45456054  0.71427812     0.16500
H3394       H  0.50271180  0.45858175  0.66987064     0.12400
H3395       H  0.50442099  0.39028865  0.66286236     0.15300
H3396       H  0.50741425  0.38521185  0.70714912     0.15000
C3397       C  0.41839596  0.50291396  0.71491520    -0.17800
C3398       C  0.43287396  0.50354040  0.71588366    -0.20000
C3399       C  0.44115656  0.50249050  0.70395297     0.20600
C3400       C  0.43475932  0.50069131  0.69093573    -0.02900
C3401       C  0.42018682  0.49999257  0.68996979    -0.06000
C3402       C  0.41194087  0.50119416  0.70200212     0.20900
C3403       C  0.41388008  0.49821792  0.67692575     0.19100
C3404       C  0.42210639  0.49701147  0.66500224    -0.17500
C3405       C  0.43651376  0.49775169  0.66595079    -0.19700
C3406       C  0.44291072  0.49964627  0.67884419     0.20600
C3407       C  0.45733483  0.50045617  0.67981274    -0.32700
C3408       C  0.46386912  0.50215549  0.69271841     0.01300
C3409       C  0.45569934  0.50316876  0.70477826    -0.24100
C3410       C  0.39741209  0.50092406  0.70084478    -0.28600
C3411       C  0.39109315  0.49957615  0.68778396     0.06900
C3412       C  0.39944362  0.49792036  0.67595040    -0.27300
H3413       H  0.41224392  0.50385109  0.72426444     0.11700
H3414       H  0.43759309  0.50490599  0.72596779     0.12800
H3415       H  0.41738903  0.49562473  0.65491757     0.11900
H3416       H  0.44265799  0.49687976  0.65658607     0.11100
H3417       H  0.46349106  0.49956253  0.67045184     0.16500
H3418       H  0.46063559  0.50445096  0.71477375     0.12400
H3419       H  0.39106913  0.50219261  0.71002455     0.15300
H3420       H  0.39474190  0.49652209  0.66587016     0.15000
C3421       C  0.14373969  0.87538883  0.39361796    -0.17800
C3422       C  0.14757006  0.87157557  0.40709329    -0.20000
C3423       C  0.14985245  0.85765017  0.41047721     0.20600
C3424       C  0.14810361  0.84745709  0.40017349    -0.02900
C3425       C  0.14398293  0.85128167  0.38664147    -0.06000
C3426       C  0.14194696  0.86533527  0.38330506     0.20900
C3427       C  0.14199969  0.84104529  0.37643823     0.19100
C3428       C  0.14427468  0.82712107  0.37979450    -0.17500
C3429       C  0.14861090  0.82336362  0.39310392    -0.19700
C3430       C  0.15058757  0.83344691  0.40334544     0.20600
C3431       C  0.15513207  0.82976919  0.41665461    -0.32700
C3432       C  0.15692855  0.83984362  0.42698962     0.01300
C3433       C  0.15403809  0.85374744  0.42389859    -0.24100
C3434       C  0.13818326  0.86906987  0.36972699    -0.28600
C3435       C  0.13604717  0.85890030  0.35955541     0.06900
C3436       C  0.13786888  0.84490703  0.36303969    -0.27300
H3437       H  0.14216993  0.88621987  0.39126390     0.11700
H3438       H  0.14888232  0.87954823  0.41484438     0.12800
H3439       H  0.14281569  0.81913495  0.37208300     0.11900
H3440       H  0.15043122  0.81255575  0.39538627     0.11100
H3441       H  0.15719549  0.81901510  0.41901273     0.16500
H3442       H  0.15549062  0.86155411  0.43180173     0.12400
H3443       H  0.13668770  0.87986156  0.36712589     0.15300
H3444       H  0.13637390  0.83702649  0.35522042     0.15000
C3445       C  0.14186552  0.81762461  0.57655038    -0.17800
C3446       C  0.13883855  0.82136493  0.59022113    -0.20000
C3447       C  0.13971705  0.83521519  0.59439977     0.20600
C3448       C  0.14358803  0.84541327  0.58466216    -0.02900
C3449       C  0.14645813  0.84165868  0.57079386    -0.06000
C3450       C  0.14570525  0.82768244  0.56677674     0.20900
C3451       C  0.15018395  0.85186344  0.56099390     0.19100
C3452       C  0.15106391  0.86571145  0.56519389    -0.17500
C3453       C  0.14838796  0.86940750  0.57896885    -0.19700
C3454       C  0.14468009  0.85934212  0.58879283     0.20600
C3455       C  0.14208974  0.86295053  0.60266485    -0.32700
C3456       C  0.13816079  0.85285735  0.61242763     0.01300
C3457       C  0.13689003  0.83902169  0.60815674    -0.24100
C3458       C  0.14892727  0.82397551  0.55310056    -0.28600
C3459       C  0.15272693  0.83404451  0.54325843     0.06900
C3460       C  0.15313874  0.84801123  0.54724107    -0.27300
H3461       H  0.14122058  0.80684659  0.57362410     0.11700
H3462       H  0.13590134  0.81339800  0.59755874     0.12800
H3463       H  0.15392887  0.87368795  0.55783936     0.11900
H3464       H  0.14923705  0.88015713  0.58194450     0.11100
H3465       H  0.14294650  0.87365236  0.60581452     0.16500
H3466       H  0.13397764  0.83115096  0.61561044     0.12400
H3467       H  0.14843428  0.81320641  0.55010286     0.15300
H3468       H  0.15617103  0.85581586  0.53976358     0.15000
C3469       C  0.26478217  0.74934089  0.47096790    -0.17800
C3470       C  0.25466837  0.75967495  0.47111693    -0.20000
C3471       C  0.24209664  0.75760627  0.47814172     0.20600
C3472       C  0.23968773  0.74501298  0.48512647    -0.02900
C3473       C  0.24982981  0.73449909  0.48481376    -0.06000
C3474       C  0.26245752  0.73672478  0.47775968     0.20900
C3475       C  0.24734519  0.72179140  0.49156280     0.19100
C3476       C  0.23480088  0.71977894  0.49868308    -0.17500
C3477       C  0.22482030  0.73026987  0.49914635    -0.19700
C3478       C  0.22714685  0.74291464  0.49238668     0.20600
C3479       C  0.21712549  0.75344600  0.49263433    -0.32700
C3480       C  0.21934966  0.76588260  0.48540595     0.01300
C3481       C  0.23187199  0.76788576  0.47822517    -0.24100
C3482       C  0.27257958  0.72633968  0.47767199    -0.28600
C3483       C  0.27022573  0.71365420  0.48439043     0.06900
C3484       C  0.25749980  0.71139210  0.49118018    -0.27300
H3485       H  0.27442186  0.75120761  0.46550484     0.11700
H3486       H  0.25668717  0.76930129  0.46573796     0.12800
H3487       H  0.23272965  0.71010402  0.50394966     0.11900
H3488       H  0.21524369  0.72846453  0.50474127     0.11100
H3489       H  0.20745210  0.75182755  0.49812790     0.16500
H3490       H  0.23371531  0.77752100  0.47279072     0.12400
H3491       H  0.28227676  0.72811442  0.47227781     0.15300
H3492       H  0.25563787  0.70169204  0.49648050     0.15000
C3493       C  0.85057542  0.42071030  0.12091404    -0.17800
C3494       C  0.85427150  0.40723780  0.11714617    -0.20000
C3495       C  0.85715109  0.39726399  0.12732511     0.20600
C3496       C  0.85621970  0.40089019  0.14144762    -0.02900
C3497       C  0.85226587  0.41442126  0.14524912    -0.06000
C3498       C  0.84953851  0.42442265  0.13493167     0.20900
C3499       C  0.85102351  0.41792081  0.15937436     0.19100
C3500       C  0.85390102  0.40796665  0.16956069    -0.17500
C3501       C  0.85804365  0.39464755  0.16579914    -0.19700
C3502       C  0.85924249  0.39100515  0.15178454     0.20600
C3503       C  0.86340572  0.37765867  0.14793833    -0.32700
C3504       C  0.86427510  0.37393053  0.13389426     0.01300
C3505       C  0.86100168  0.38375899  0.12364435    -0.24100
C3506       C  0.84570773  0.43789494  0.13882709    -0.28600
C3507       C  0.84418480  0.44134439  0.15289290     0.06900
C3508       C  0.84686765  0.43128778  0.16308191    -0.27300
H3509       H  0.84846483  0.42821804  0.11285011     0.11700
H3510       H  0.85494625  0.40463645  0.10625414     0.12800
H3511       H  0.85299406  0.41049912  0.18045358     0.11900
H3512       H  0.86027284  0.38717532  0.17386342     0.11100
H3513       H  0.86574435  0.37009309  0.15588821     0.16500
H3514       H  0.86172964  0.38097717  0.11279627     0.12400
H3515       H  0.84352731  0.44557130  0.13093609     0.15300
H3516       H  0.84583763  0.43391202  0.17394683     0.15000
C3517       C  0.85075956  0.58910241  0.11110732    -0.17800
C3518       C  0.84779837  0.57578033  0.11599603    -0.20000
C3519       C  0.84785383  0.57291997  0.13026924     0.20600
C3520       C  0.85107903  0.58358558  0.13968909    -0.02900
C3521       C  0.85430999  0.59694743  0.13474968    -0.06000
C3522       C  0.85399175  0.59977527  0.12039184     0.20900
C3523       C  0.85775953  0.60749629  0.14420668     0.19100
C3524       C  0.85780347  0.60468897  0.15846612    -0.17500
C3525       C  0.85435883  0.59154176  0.16336281    -0.19700
C3526       C  0.85097378  0.58094416  0.15406951     0.20600
C3527       C  0.84737742  0.56778856  0.15894074    -0.32700
C3528       C  0.84410834  0.55709448  0.14966781     0.01300
C3529       C  0.84456984  0.55966478  0.13531922    -0.24100
C3530       C  0.85687455  0.61322094  0.11562550    -0.28600
C3531       C  0.86048465  0.62368331  0.12503512     0.06900
C3532       C  0.86101016  0.62070578  0.13927001    -0.27300
H3533       H  0.85052402  0.59105603  0.10005464     0.11700
H3534       H  0.84533320  0.56773647  0.10860837     0.12800
H3535       H  0.86039901  0.61269961  0.16584788     0.11900
H3536       H  0.85434255  0.58965980  0.17443146     0.11100
H3537       H  0.84721039  0.56584409  0.17000184     0.16500
H3538       H  0.84196299  0.55148347  0.12812806     0.12400
H3539       H  0.85653235  0.61550859  0.10463230     0.15300
H3540       H  0.86363058  0.62879954  0.14656129     0.15000
C3541       C  0.76013495  0.52206923  0.26602003    -0.17800
C3542       C  0.77076822  0.52175113  0.25615087    -0.20000
C3543       C  0.77089288  0.51159425  0.24579564     0.20600
C3544       C  0.76022266  0.50161611  0.24542751    -0.02900
C3545       C  0.74936671  0.50207845  0.25524064    -0.06000
C3546       C  0.74936488  0.51232734  0.26561079     0.20900
C3547       C  0.73848239  0.49234130  0.25461677     0.19100
C3548       C  0.73872339  0.48205422  0.24440012    -0.17500
C3549       C  0.74959206  0.48146473  0.23481357    -0.19700
C3550       C  0.76033406  0.49123367  0.23519437     0.20600
C3551       C  0.77110254  0.49087556  0.22543506    -0.32700
C3552       C  0.78162188  0.50093271  0.22555763     0.01300
C3553       C  0.78144556  0.51127287  0.23576640    -0.24100
C3554       C  0.73855415  0.51270068  0.27533272    -0.28600
C3555       C  0.72755614  0.50319185  0.27461555     0.06900
C3556       C  0.72754961  0.49307886  0.26420027    -0.27300
H3557       H  0.76027742  0.53000824  0.27391434     0.11700
H3558       H  0.77889835  0.52945825  0.25661667     0.12800
H3559       H  0.73049521  0.47446198  0.24381657     0.11900
H3560       H  0.74953358  0.47342652  0.22701775     0.11100
H3561       H  0.77108360  0.48295950  0.21751323     0.16500
H3562       H  0.78959477  0.51897713  0.23598827     0.12400
H3563       H  0.73854703  0.52057773  0.28329793     0.15300
H3564       H  0.71916376  0.48564300  0.26371933     0.15000
C3565       C  0.42024853  0.87174568  0.14350714    -0.17800
C3566       C  0.40673179  0.87540154  0.13969612    -0.20000
C3567       C  0.39794400  0.86571684  0.13338330     0.20600
C3568       C  0.40286065  0.85222691  0.13084979    -0.02900
C3569       C  0.41641121  0.84846929  0.13490631    -0.06000
C3570       C  0.42517361  0.85829664  0.14121152     0.20900
C3571       C  0.42112348  0.83483212  0.13278874     0.19100
C3572       C  0.41241951  0.82519794  0.12632277    -0.17500
C3573       C  0.39909858  0.82898588  0.12209174    -0.19700
C3574       C  0.39419443  0.84242859  0.12439444     0.20600
C3575       C  0.38071044  0.84615961  0.12051215    -0.32700
C3576       C  0.37560363  0.85948671  0.12322248     0.01300
C3577       C  0.38430903  0.86923002  0.12965376    -0.24100
C3578       C  0.43861368  0.85442835  0.14527386    -0.28600
C3579       C  0.44318693  0.84075202  0.14353713     0.06900
C3580       C  0.43439597  0.83102351  0.13730054    -0.27300
H3581       H  0.42681049  0.87940887  0.14837395     0.11700
H3582       H  0.40314425  0.88581077  0.14170365     0.12800
H3583       H  0.41590429  0.81470956  0.12456786     0.11900
H3584       H  0.39256877  0.82134485  0.11714490     0.11100
H3585       H  0.37406866  0.83852101  0.11572000     0.16500
H3586       H  0.38051655  0.87956440  0.13167883     0.12400
H3587       H  0.44534836  0.86191100  0.15020296     0.15300
H3588       H  0.43795101  0.82049742  0.13588769     0.15000
C3589       C  0.60421074  0.86750570  0.16723396    -0.17800
C3590       C  0.59065811  0.86454634  0.17148055    -0.20000
C3591       C  0.58069293  0.86026011  0.16182118     0.20600
C3592       C  0.58437497  0.85909861  0.14771024    -0.02900
C3593       C  0.59812477  0.86183522  0.14346759    -0.06000
C3594       C  0.60807277  0.86607462  0.15328219     0.20900
C3595       C  0.60194249  0.86017942  0.12944493     0.19100
C3596       C  0.59191490  0.85611117  0.11975240    -0.17500
C3597       C  0.57823856  0.85361492  0.12391523    -0.19700
C3598       C  0.57437874  0.85499790  0.13787032     0.20600
C3599       C  0.56078934  0.85206993  0.14220995    -0.32700
C3600       C  0.55721662  0.85271932  0.15631365     0.01300
C3601       C  0.56718612  0.85688080  0.16604986    -0.24100
C3602       C  0.62173140  0.86868210  0.14900266    -0.28600
C3603       C  0.62567965  0.86684826  0.13508240     0.06900
C3604       C  0.61571773  0.86256607  0.12537268    -0.27300
H3605       H  0.61172048  0.87076508  0.17489905     0.11700
H3606       H  0.58798585  0.86555047  0.18233758     0.12800
H3607       H  0.59465716  0.85483080  0.10894132     0.11900
H3608       H  0.57070894  0.85044057  0.11623449     0.11100
H3609       H  0.55314634  0.84871765  0.13470889     0.16500
H3610       H  0.56441156  0.85743757  0.17692352     0.12400
H3611       H  0.62935637  0.87185720  0.15658898     0.15300
H3612       H  0.61863205  0.86127708  0.11460523     0.15000
C3613       C  0.51174563  0.76186687  0.26343132    -0.17800
C3614       C  0.51158557  0.77202727  0.25311647    -0.20000
C3615       C  0.50610999  0.76913593  0.23997760     0.20600
C3616       C  0.50065531  0.75589922  0.23722001    -0.02900
C3617       C  0.50097761  0.74558284  0.24758915    -0.06000
C3618       C  0.50652884  0.74860714  0.26075567     0.20900
C3619       C  0.49582085  0.73224551  0.24475835     0.19100
C3620       C  0.49021528  0.72940580  0.23164969    -0.17500
C3621       C  0.48973098  0.73968097  0.22143013    -0.19700
C3622       C  0.49494635  0.75294998  0.22409278     0.20600
C3623       C  0.49465254  0.76329018  0.21385407    -0.32700
C3624       C  0.50032558  0.77641147  0.21646749     0.01300
C3625       C  0.50604565  0.77923740  0.22954553    -0.24100
C3626       C  0.50687055  0.73830901  0.27099157    -0.28600
C3627       C  0.50190749  0.72492361  0.26823605     0.06900
C3628       C  0.49639486  0.72198663  0.25506265    -0.27300
H3629       H  0.51603969  0.76435981  0.27348967     0.11700
H3630       H  0.51576218  0.78215356  0.25541479     0.12800
H3631       H  0.48619483  0.71923124  0.22929901     0.11900
H3632       H  0.48534176  0.73722053  0.21140462     0.11100
H3633       H  0.49030867  0.76104022  0.20375398     0.16500
H3634       H  0.51028660  0.78938212  0.23166606     0.12400
H3635       H  0.51128313  0.74068308  0.28102171     0.15300
H3636       H  0.49242236  0.71176378  0.25284961     0.15000
C3637       C  0.12164700  0.41709242  0.83645294    -0.17800
C3638       C  0.11822956  0.40363845  0.84058203    -0.20000
C3639       C  0.12856649  0.39449117  0.84512933     0.20600
C3640       C  0.14248068  0.39896152  0.84555070    -0.02900
C3641       C  0.14595352  0.41244352  0.84117618    -0.06000
C3642       C  0.13547739  0.42159086  0.83666671     0.20900
C3643       C  0.15992960  0.41672111  0.84122133     0.19100
C3644       C  0.17025993  0.40764634  0.84587267    -0.17500
C3645       C  0.16679407  0.39437811  0.85040949    -0.19700
C3646       C  0.15296141  0.38992624  0.85023159     0.20600
C3647       C  0.14947268  0.37653632  0.85449821    -0.32700
C3648       C  0.13568935  0.37190076  0.85386602     0.01300
C3649       C  0.12527539  0.38093279  0.84916811    -0.24100
C3650       C  0.13906270  0.43499536  0.83232292    -0.28600
C3651       C  0.15301308  0.43914884  0.83206412     0.06900
C3652       C  0.16336278  0.42996729  0.83652964    -0.27300
H3653       H  0.11347771  0.42394870  0.83298761     0.11700
H3654       H  0.10749276  0.40038403  0.84021388     0.12800
H3655       H  0.18103161  0.41081038  0.84599269     0.11900
H3656       H  0.17495535  0.38755197  0.85395114     0.11100
H3657       H  0.15757839  0.36958921  0.85793129     0.16500
H3658       H  0.11461172  0.37743918  0.84874782     0.12400
H3659       H  0.13108813  0.44204696  0.82877793     0.15300
H3660       H  0.17412197  0.43319991  0.83647359     0.15000
C3661       C  0.16774883  0.60112243  0.84689761    -0.17800
C3662       C  0.17098955  0.58730512  0.84443463    -0.20000
C3663       C  0.16046118  0.57773653  0.84160976     0.20600
C3664       C  0.14650600  0.58203134  0.84139239    -0.02900
C3665       C  0.14323701  0.59602858  0.84378950    -0.06000
C3666       C  0.15393462  0.60557850  0.84655450     0.20900
C3667       C  0.12932351  0.60048721  0.84330104     0.19100
C3668       C  0.11879654  0.59082443  0.84063428    -0.17500
C3669       C  0.12204034  0.57690165  0.83831797    -0.19700
C3670       C  0.13587443  0.57239971  0.83856630     0.20600
C3671       C  0.13934743  0.55857543  0.83563586    -0.32700
C3672       C  0.15332258  0.55446323  0.83525636     0.01300
C3673       C  0.16373470  0.56402559  0.83861977    -0.24100
C3674       C  0.15067307  0.61943492  0.84894276    -0.28600
C3675       C  0.13687516  0.62399543  0.84849912     0.06900
C3676       C  0.12622929  0.61450535  0.84553340    -0.27300
H3677       H  0.17606253  0.60834507  0.84900210     0.11700
H3678       H  0.18175254  0.58412276  0.84461798     0.12800
H3679       H  0.10805156  0.59404573  0.84028314     0.11900
H3680       H  0.11373534  0.56968379  0.83617238     0.11100
H3681       H  0.13129122  0.55122983  0.83301353     0.16500
H3682       H  0.17450696  0.56085272  0.83861626     0.12400
H3683       H  0.15893867  0.62672140  0.85102738     0.15300
H3684       H  0.11555220  0.61796285  0.84526464     0.15000
C3685       C  0.25765295  0.52043168  0.76089785    -0.17800
C3686       C  0.26831331  0.52014282  0.75104421    -0.20000
C3687       C  0.26937692  0.50911513  0.74168040     0.20600
C3688       C  0.25953519  0.49832824  0.74217429    -0.02900
C3689       C  0.24894505  0.49850649  0.75224955    -0.06000
C3690       C  0.24797543  0.50962083  0.76164746     0.20900
C3691       C  0.23936362  0.48752107  0.75293838     0.19100
C3692       C  0.24027137  0.47660380  0.74345165    -0.17500
C3693       C  0.25061580  0.47653867  0.73332494    -0.19700
C3694       C  0.26029365  0.48731931  0.73262661     0.20600
C3695       C  0.27074072  0.48725475  0.72256675    -0.32700
C3696       C  0.28069550  0.49778596  0.72222077     0.01300
C3697       C  0.28007509  0.50864629  0.73182184    -0.24100
C3698       C  0.23741434  0.50964851  0.77167577    -0.28600
C3699       C  0.22800055  0.49857885  0.77255198     0.06900
C3700       C  0.22904012  0.48759876  0.76311245    -0.27300
H3701       H  0.25704787  0.52905439  0.76801119     0.11700
H3702       H  0.27572479  0.52854816  0.75074400     0.12800
H3703       H  0.23296002  0.46811268  0.74385321     0.11900
H3704       H  0.25109773  0.46801273  0.72608758     0.11100
H3705       H  0.27131634  0.47887726  0.71514628     0.16500
H3706       H  0.28773926  0.51683027  0.73140477     0.12400
H3707       H  0.23670008  0.51812883  0.77895218     0.15300
H3708       H  0.22168488  0.47915189  0.76352876     0.15000
C3709       C  0.39653083  0.13695410  0.81581917    -0.17800
C3710       C  0.41012962  0.14057395  0.81239312    -0.20000
C3711       C  0.41937363  0.14497586  0.82268388     0.20600
C3712       C  0.41488916  0.14578793  0.83657421    -0.02900
C3713       C  0.40108567  0.14228230  0.84001218    -0.06000
C3714       C  0.39191575  0.13776529  0.82958002     0.20900
C3715       C  0.39646861  0.14329583  0.85385033     0.19100
C3716       C  0.40574389  0.14773368  0.86413220    -0.17500
C3717       C  0.41948199  0.15106121  0.86074805    -0.19700
C3718       C  0.42417812  0.15010775  0.84700236     0.20600
C3719       C  0.43793600  0.15347418  0.84345726    -0.32700
C3720       C  0.44236805  0.15287543  0.82957322     0.01300
C3721       C  0.43300684  0.14861692  0.81928446    -0.24100
C3722       C  0.37827855  0.13415023  0.83304664    -0.28600
C3723       C  0.37353379  0.13514222  0.84678539     0.06900
C3724       C  0.38268680  0.13981880  0.85713658    -0.27300
H3725       H  0.38960611  0.13354026  0.80768771     0.11700
H3726       H  0.41343048  0.13989887  0.80167997     0.12800
H3727       H  0.40238624  0.14858367  0.87481300     0.11900
H3728       H  0.42642841  0.15441404  0.86888566     0.11100
H3729       H  0.44507240  0.15688234  0.85141137     0.16500
H3730       H  0.43638320  0.14800867  0.80858601     0.12400
H3731       H  0.37129205  0.13077209  0.82495642     0.15300
H3732       H  0.37916436  0.14055608  0.86777312     0.15000
C3733       C  0.60374574  0.17423510  0.85734995    -0.17800
C3734       C  0.59013395  0.17761856  0.85373432    -0.20000
C3735       C  0.58072407  0.16726887  0.84988689     0.20600
C3736       C  0.58497125  0.15332157  0.84998373    -0.02900
C3737       C  0.59881520  0.14992585  0.85340068    -0.06000
C3738       C  0.60823981  0.16045763  0.85703186     0.20900
C3739       C  0.60329815  0.13606335  0.85287478     0.19100
C3740       C  0.59374839  0.12567632  0.84939635    -0.17500
C3741       C  0.57996714  0.12901512  0.84622400    -0.19700
C3742       C  0.57549731  0.14282186  0.84632590     0.20600
C3743       C  0.56187819  0.14637993  0.84244911    -0.32700
C3744       C  0.55783780  0.16032572  0.84171346     0.01300
C3745       C  0.56726628  0.17067194  0.84559213    -0.24100
C3746       C  0.62207384  0.15710531  0.85997767    -0.28600
C3747       C  0.62679310  0.14338715  0.85906082     0.06900
C3748       C  0.61728243  0.13289065  0.85560075    -0.27300
H3749       H  0.61084160  0.18244180  0.86015204     0.11700
H3750       H  0.58700774  0.18836389  0.85379780     0.12800
H3751       H  0.59697013  0.11496609  0.84900326     0.11900
H3752       H  0.57286426  0.12081032  0.84344416     0.11100
H3753       H  0.55464977  0.13838968  0.83935713     0.16500
H3754       H  0.56413649  0.18141658  0.84510599     0.12400
H3755       H  0.62927765  0.16530143  0.86251131     0.15300
H3756       H  0.62075367  0.12226628  0.85501576     0.15000
C3757       C  0.51620234  0.25477367  0.75709042    -0.17800
C3758       C  0.51543183  0.26565379  0.74758068    -0.20000
C3759       C  0.50683740  0.26466780  0.73591347     0.20600
C3760       C  0.49890245  0.25260384  0.73380997    -0.02900
C3761       C  0.49952856  0.24168845  0.74353419    -0.06000
C3762       C  0.50829868  0.24276484  0.75516861     0.20900
C3763       C  0.49142318  0.22971177  0.74160205     0.19100
C3764       C  0.48284873  0.22872561  0.72989463    -0.17500
C3765       C  0.48240290  0.23944870  0.72013224    -0.19700
C3766       C  0.49040743  0.25142190  0.72197266     0.20600
C3767       C  0.49013227  0.26220848  0.71219069    -0.32700
C3768       C  0.49792923  0.27430224  0.71432437     0.01300
C3769       C  0.50613763  0.27549740  0.72627165    -0.24100
C3770       C  0.50901791  0.23184442  0.76470468    -0.28600
C3771       C  0.50093459  0.21988758  0.76294200     0.06900
C3772       C  0.49208436  0.21893913  0.75138043    -0.27300
H3773       H  0.52297234  0.25576838  0.76598138     0.11700
H3774       H  0.52162267  0.27482390  0.74931799     0.12800
H3775       H  0.47654866  0.21961490  0.72823798     0.11900
H3776       H  0.47577979  0.23837956  0.71114173     0.11100
H3777       H  0.48374629  0.26128345  0.70300676     0.16500
H3778       H  0.51229228  0.28472496  0.72786956     0.12400
H3779       H  0.51571528  0.23279496  0.77365145     0.15300
H3780       H  0.48586874  0.20974463  0.74987213     0.15000
C3781       C  0.12476301  0.14301055  0.39821136    -0.17800
C3782       C  0.12877095  0.14696484  0.41157132    -0.20000
C3783       C  0.14280835  0.14687641  0.41538788     0.20600
C3784       C  0.15287164  0.14245749  0.40573132    -0.02900
C3785       C  0.14880139  0.13822017  0.39234779    -0.06000
C3786       C  0.13470262  0.13873096  0.38848692     0.20900
C3787       C  0.15887793  0.13370446  0.38276118     0.19100
C3788       C  0.17288921  0.13342915  0.38661988    -0.17500
C3789       C  0.17694476  0.13787032  0.39977688    -0.19700
C3790       C  0.16703892  0.14250613  0.40934968     0.20600
C3791       C  0.17108455  0.14740306  0.42238524    -0.32700
C3792       C  0.16115457  0.15196665  0.43199734     0.01300
C3793       C  0.14700561  0.15139735  0.42856285    -0.24100
C3794       C  0.13084122  0.13511043  0.37493398    -0.28600
C3795       C  0.14085784  0.13064434  0.36533964     0.06900
C3796       C  0.15481129  0.12976518  0.36940591    -0.27300
H3797       H  0.11388707  0.14337964  0.39545745     0.11700
H3798       H  0.12090590  0.15030692  0.41885136     0.12800
H3799       H  0.18074433  0.12997317  0.37938141     0.11900
H3800       H  0.18785127  0.13777069  0.40243281     0.11100
H3801       H  0.18198628  0.14764617  0.42507777     0.16500
H3802       H  0.13932649  0.15495542  0.43594604     0.12400
H3803       H  0.12005059  0.13566512  0.37187177     0.15300
H3804       H  0.16258915  0.12643411  0.36201965     0.15000
C3805       C  0.17395046  0.14454405  0.59362877    -0.17800
C3806       C  0.17700307  0.14890855  0.58016387    -0.20000
C3807       C  0.16650461  0.14971441  0.57015342     0.20600
C3808       C  0.15281921  0.14595537  0.57365155    -0.02900
C3809       C  0.14969263  0.14177597  0.58730944    -0.06000
C3810       C  0.16032908  0.14105360  0.59732237     0.20900
C3811       C  0.13590805  0.13854131  0.59099687     0.19100
C3812       C  0.12547252  0.13908922  0.58089016    -0.17500
C3813       C  0.12862161  0.14300505  0.56727409    -0.19700
C3814       C  0.14222798  0.14659831  0.56357524     0.20600
C3815       C  0.14539206  0.15113011  0.55009391    -0.32700
C3816       C  0.15891155  0.15537922  0.54675054     0.01300
C3817       C  0.16942583  0.15446141  0.55677641    -0.24100
C3818       C  0.15712518  0.13706356  0.61090691    -0.28600
C3819       C  0.14337596  0.13422197  0.61472216     0.06900
C3820       C  0.13280436  0.13497638  0.60475546    -0.27300
H3821       H  0.18221569  0.14406495  0.60120319     0.11700
H3822       H  0.18756642  0.15173803  0.57759955     0.12800
H3823       H  0.11485416  0.13655928  0.58353549     0.11900
H3824       H  0.12036794  0.14342805  0.55968345     0.11100
H3825       H  0.13726557  0.15186783  0.54238211     0.16500
H3826       H  0.17992749  0.15749260  0.55417520     0.12400
H3827       H  0.16525627  0.13660902  0.61863713     0.15300
H3828       H  0.12220272  0.13269027  0.60771080     0.15000
C3829       C  0.24847257  0.26055516  0.51522592    -0.17800
C3830       C  0.23810733  0.25070919  0.51322712    -0.20000
C3831       C  0.24017379  0.23973541  0.50399257     0.20600
C3832       C  0.25278464  0.23861742  0.49667904    -0.02900
C3833       C  0.26333423  0.24845843  0.49884727    -0.06000
C3834       C  0.26110064  0.25950410  0.50810929     0.20900
C3835       C  0.27609951  0.24723322  0.49179889     0.19100
C3836       C  0.27810278  0.23627470  0.48249750    -0.17500
C3837       C  0.26755091  0.22660446  0.48020166    -0.19700
C3838       C  0.25485889  0.22765969  0.48725733     0.20600
C3839       C  0.24424624  0.21791683  0.48519070    -0.32700
C3840       C  0.23178786  0.21887683  0.49269792     0.01300
C3841       C  0.22984204  0.22983068  0.50202040    -0.24100
C3842       C  0.27153416  0.26930535  0.51014587    -0.28600
C3843       C  0.28430134  0.26811446  0.50327555     0.06900
C3844       C  0.28658872  0.25700596  0.49418384    -0.27300
H3845       H  0.24663345  0.26896515  0.52238691     0.11700
H3846       H  0.22845770  0.25168551  0.51889844     0.12800
H3847       H  0.28782532  0.23519632  0.47697464     0.11900
H3848       H  0.26934652  0.21825457  0.47296204     0.11100
H3849       H  0.24580101  0.20942007  0.47806041     0.16500
H3850       H  0.22018097  0.23073131  0.50769195     0.12400
H3851       H  0.26979651  0.27774744  0.51730005     0.15300
H3852       H  0.29641301  0.25611869  0.48879897     0.15000
C3853       C  0.40085185  0.16717283  0.11705851    -0.17800
C3854       C  0.41428992  0.17163417  0.12010943    -0.20000
C3855       C  0.42353528  0.16292048  0.12714282     0.20600
C3856       C  0.41930070  0.14947488  0.13091252    -0.02900
C3857       C  0.40564878  0.14504781  0.12801888    -0.06000
C3858       C  0.39638521  0.15396866  0.12110264     0.20900
C3859       C  0.40120590  0.13180969  0.13225846     0.19100
C3860       C  0.41056960  0.12299502  0.13903377    -0.17500
C3861       C  0.42415585  0.12731366  0.14174585    -0.19700
C3862       C  0.42859981  0.14057072  0.13783836     0.20600
C3863       C  0.44202337  0.14523271  0.14106348    -0.32700
C3864       C  0.44604508  0.15882400  0.13786204     0.01300
C3865       C  0.43681190  0.16754281  0.13077779    -0.24100
C3866       C  0.38275407  0.14963594  0.11853491    -0.28600
C3867       C  0.37811589  0.13656186  0.12295981     0.06900
C3868       C  0.38745471  0.12768532  0.12977903    -0.27300
H3869       H  0.39387867  0.17413680  0.11170725     0.11700
H3870       H  0.41741046  0.18195859  0.11708206     0.12800
H3871       H  0.40735644  0.11277875  0.14232292     0.11900
H3872       H  0.43113238  0.12034724  0.14708853     0.11100
H3873       H  0.44909604  0.13854386  0.14664564     0.16500
H3874       H  0.43993914  0.17800562  0.12824471     0.12400
H3875       H  0.37566824  0.15663323  0.11339132     0.15300
H3876       H  0.38406402  0.11753710  0.13309922     0.15000
C3877       C  0.59410122  0.18075173  0.13798099    -0.17800
C3878       C  0.60787437  0.17750137  0.13478570    -0.20000
C3879       C  0.61235524  0.16370764  0.13473187     0.20600
C3880       C  0.60281347  0.15307304  0.13779184    -0.02900
C3881       C  0.58884217  0.15633662  0.14077248    -0.06000
C3882       C  0.58452376  0.17025653  0.14103450     0.20900
C3883       C  0.57924006  0.14568322  0.14361990     0.19100
C3884       C  0.58373193  0.13189878  0.14358709    -0.17500
C3885       C  0.59761572  0.12868509  0.14085544    -0.19700
C3886       C  0.60723798  0.13918504  0.13795328     0.20600
C3887       C  0.62118758  0.13603587  0.13519657    -0.32700
C3888       C  0.63074820  0.14655820  0.13199475     0.01300
C3889       C  0.62620857  0.16037254  0.13172796    -0.24100
C3890       C  0.57075885  0.17343613  0.14451923    -0.28600
C3891       C  0.56115220  0.16287778  0.14739258     0.06900
C3892       C  0.56538864  0.14901830  0.14667323    -0.27300
H3893       H  0.59094380  0.19148809  0.13808735     0.11700
H3894       H  0.61505589  0.18579629  0.13246125     0.12800
H3895       H  0.57652475  0.12359525  0.14579737     0.11900
H3896       H  0.60082723  0.11796486  0.14099594     0.11100
H3897       H  0.62453562  0.12535561  0.13529543     0.16500
H3898       H  0.63350732  0.16856719  0.12940677     0.12400
H3899       H  0.56748644  0.18413661  0.14497676     0.15300
H3900       H  0.55802606  0.14087422  0.14900336     0.15000
C3901       C  0.50213929  0.24086924  0.25870601    -0.17800
C3902       C  0.50280455  0.23119693  0.24798405    -0.20000
C3903       C  0.49783289  0.23451822  0.23473782     0.20600
C3904       C  0.49193915  0.24763941  0.23230741    -0.02900
C3905       C  0.49143846  0.25746119  0.24308511    -0.06000
C3906       C  0.49658767  0.25405793  0.25633084     0.20900
C3907       C  0.48590773  0.27071052  0.24056657     0.19100
C3908       C  0.48074179  0.27395616  0.22736604    -0.17500
C3909       C  0.48108732  0.26417011  0.21672318    -0.19700
C3910       C  0.48670442  0.25100840  0.21906833     0.20600
C3911       C  0.48740110  0.24123660  0.20836558    -0.32700
C3912       C  0.49369093  0.22835903  0.21063525     0.01300
C3913       C  0.49883100  0.22503224  0.22382894    -0.24100
C3914       C  0.49620166  0.26392114  0.26694574    -0.28600
C3915       C  0.49081077  0.27721688  0.26451946     0.06900
C3916       C  0.48566834  0.28049600  0.25126696    -0.27300
H3917       H  0.50609588  0.23807638  0.26883130     0.11700
H3918       H  0.50728159  0.22113953  0.25003349     0.12800
H3919       H  0.47644854  0.28408181  0.22526263     0.11900
H3920       H  0.47706981  0.26694082  0.20661656     0.11100
H3921       H  0.48351886  0.24380920  0.19814531     0.16500
H3922       H  0.50358063  0.21503414  0.22558200     0.12400
H3923       H  0.50030497  0.26124734  0.27703273     0.15300
H3924       H  0.48134281  0.29061344  0.24924937     0.15000
C3925       C  0.13926124  0.39295245  0.16231079    -0.17800
C3926       C  0.14174391  0.40662201  0.16626711    -0.20000
C3927       C  0.14794318  0.41595727  0.15700151     0.20600
C3928       C  0.15160689  0.41149386  0.14357660    -0.02900
C3929       C  0.14926188  0.39760919  0.13964017    -0.06000
C3930       C  0.14303191  0.38833164  0.14905409     0.20900
C3931       C  0.15320419  0.39300692  0.12633787     0.19100
C3932       C  0.15933927  0.40239532  0.11705757    -0.17500
C3933       C  0.16152470  0.41618874  0.12089957    -0.19700
C3934       C  0.15771132  0.42086096  0.13413667     0.20600
C3935       C  0.16007212  0.43464603  0.13818403    -0.32700
C3936       C  0.15678130  0.43903784  0.15168610     0.01300
C3937       C  0.15068963  0.42962039  0.16099688    -0.24100
C3938       C  0.14069780  0.37458533  0.14509977    -0.28600
C3939       C  0.14456835  0.36982367  0.13185808     0.06900
C3940       C  0.15091362  0.37913450  0.12255735    -0.27300
H3941       H  0.13445467  0.38596125  0.16966598     0.11700
H3942       H  0.13883325  0.40988879  0.17659891     0.12800
H3943       H  0.16243800  0.39907388  0.10679839     0.11900
H3944       H  0.16627979  0.42319224  0.11352733     0.11100
H3945       H  0.16491884  0.44181153  0.13102299     0.16500
H3946       H  0.14808416  0.43295727  0.17139555     0.12400
H3947       H  0.13599367  0.36756539  0.15247760     0.15300
H3948       H  0.15388285  0.37567184  0.11231035     0.15000
C3949       C  0.14982307  0.59072499  0.11574758    -0.17800
C3950       C  0.15416845  0.57725703  0.11880497    -0.20000
C3951       C  0.15613952  0.57306141  0.13259118     0.20600
C3952       C  0.15383639  0.58261713  0.14339815    -0.02900
C3953       C  0.14919573  0.59613676  0.14032457    -0.06000
C3954       C  0.14720513  0.60020981  0.12642767     0.20900
C3955       C  0.14649226  0.60554165  0.15116085     0.19100
C3956       C  0.14878891  0.60146807  0.16493069    -0.17500
C3957       C  0.15363376  0.58817651  0.16795836    -0.19700
C3958       C  0.15610528  0.57865404  0.15728208     0.20600
C3959       C  0.16074917  0.56522954  0.16024963    -0.32700
C3960       C  0.16276982  0.55554747  0.14957166     0.01300
C3961       C  0.16037154  0.55950855  0.13576810    -0.24100
C3962       C  0.14257591  0.61365998  0.12346409    -0.28600
C3963       C  0.13960230  0.62301718  0.13422105     0.06900
C3964       C  0.14155453  0.61884310  0.14804784    -0.27300
H3965       H  0.14838617  0.59368618  0.10501675     0.11700
H3966       H  0.15598720  0.57011163  0.11036841     0.12800
H3967       H  0.14684628  0.60857273  0.17337295     0.11900
H3968       H  0.15533622  0.58530287  0.17867537     0.11100
H3969       H  0.16255239  0.56221380  0.17091835     0.16500
H3970       H  0.16209887  0.55213032  0.12750788     0.12400
H3971       H  0.14105419  0.61676666  0.11278207     0.15300
H3972       H  0.13949343  0.62603909  0.15638639     0.15000
C3973       C  0.27004008  0.50194744  0.23608091    -0.17800
C3974       C  0.25966676  0.50275127  0.22602613    -0.20000
C3975       C  0.24624491  0.49797752  0.22892900     0.20600
C3976       C  0.24324949  0.49222470  0.24204343    -0.02900
C3977       C  0.25367926  0.49156553  0.25224313    -0.06000
C3978       C  0.26712401  0.49645200  0.24922732     0.20900
C3979       C  0.25063437  0.48609228  0.26546120     0.19100
C3980       C  0.23724135  0.48116947  0.26829896    -0.17500
C3981       C  0.22693409  0.48167252  0.25812991    -0.19700
C3982       C  0.22982529  0.48719453  0.24498711     0.20600
C3983       C  0.21953001  0.48785572  0.23475805    -0.32700
C3984       C  0.22241578  0.49382299  0.22179914     0.01300
C3985       C  0.23575803  0.49889177  0.21896072    -0.24100
C3986       C  0.27740610  0.49585880  0.25942791    -0.28600
C3987       C  0.27445067  0.49054114  0.27268272     0.06900
C3988       C  0.26102098  0.48566511  0.27560823    -0.27300
H3989       H  0.28032741  0.50571540  0.23360489     0.11700
H3990       H  0.26213708  0.50712755  0.21598121     0.12800
H3991       H  0.23473528  0.47692284  0.27839114     0.11900
H3992       H  0.21667798  0.47780276  0.26056804     0.11100
H3993       H  0.20920008  0.48402012  0.23696050     0.16500
H3994       H  0.23802255  0.50336059  0.20890037     0.12400
H3995       H  0.28764959  0.49978602  0.25706152     0.15300
H3996       H  0.25865123  0.48140579  0.28572228     0.15000
loop_ 
_geom_bond_atom_site_label_1 
_geom_bond_atom_site_label_2 
_geom_bond_distance 
_geom_bond_site_symmetry_2 
_ccdc_geom_bond_type 
N1            N2   1.325       .  A
N1            C5   1.353       .  A
N1           Cu9   2.112       .  S
N2            C3   1.343       .  A
N2           Cu8   2.072       .  S
C3            C4   1.381       .  A
C3            H6   1.082       .  S
C4            C5   1.391       .  A
C4         C3936   1.485       .  S
C5            H7   1.082       .  S
Cu8          N11   2.070       .  S
Cu9          N19   2.112       .  S
Cu10         N12   2.058       .  S
Cu10         N18   2.060       .  S
N11          N12   1.320       .  A
N11          C15   1.345       .  A
N12          C13   1.342       .  A
C13          C14   1.382       .  A
C13          H16   1.082       .  S
C14          C15   1.385       .  A
C14        C3984   1.473       .  S
C15          H17   1.082       .  S
N18          N19   1.323       .  A
N18          C22   1.342       .  A
N19          C20   1.353       .  A
C20          C21   1.392       .  A
C20          H23   1.082       .  S
C21          C22   1.380       .  A
C21        C3960   1.483       .  S
C22          H24   1.082       .  S
N25          N26   1.323       .  A
N25          C29   1.350       .  A
N25         Cu33   2.095       .  S
N26          C27   1.343       .  A
N26         Cu32   2.067       .  S
C27          C28   1.381       .  A
C27          H30   1.082       .  S
C28          C29   1.388       .  A
C28        C3891   1.480       .  S
C29          H31   1.082       .  S
Cu32         N35   2.066       .  S
Cu33         N43   2.095       .  S
Cu34         N36   2.072       .  S
Cu34         N42   2.073       .  S
N35          N36   1.320       .  A
N35          C39   1.343       .  A
N36          C37   1.346       .  A
C37          C38   1.385       .  A
C37          H40   1.082       .  S
C38          C39   1.382       .  A
C38        C3912   1.473       .  S
C39          H41   1.082       .  S
N42          N43   1.324       .  A
N42          C46   1.343       .  A
N43          C44   1.350       .  A
C44          C45   1.387       .  A
C44          H47   1.082       .  S
C45          C46   1.381       .  A
C45        C3864   1.478       .  S
C46          H48   1.082       .  S
N49          N50   1.326       .  A
N49          C53   1.347       .  A
N49         Cu57   2.084       .  S
N50          C51   1.344       .  A
N50         Cu56   2.085       .  S
C51          C52   1.383       .  A
C51          H54   1.082       .  S
C52          C53   1.384       .  A
C52        C3792   1.478       .  S
C53          H55   1.082       .  S
Cu56         N59   2.082       .  S
Cu57         N67   2.082       .  S
Cu58         N60   2.049       .  S
Cu58         N66   2.049       .  S
N59          N60   1.320       .  A
N59          C63   1.350       .  A
N60          C61   1.338       .  A
C61          C62   1.381       .  A
C61          H64   1.082       .  S
C62          C63   1.389       .  A
C62        C3840   1.476       .  S
C63          H65   1.082       .  S
N66          N67   1.320       .  A
N66          C70   1.338       .  A
N67          C68   1.349       .  A
C68          C69   1.389       .  A
C68          H71   1.082       .  S
C69          C70   1.380       .  A
C69        C3816   1.476       .  S
C70          H72   1.082       .  S
N73          N74   1.323       .  A
N73          C77   1.350       .  A
N73         Cu81   2.093       .  S
N74          C75   1.341       .  A
N74         Cu80   2.069       .  S
C75          C76   1.382       .  A
C75          H78   1.082       .  S
C76          C77   1.389       .  A
C76        C3720   1.482       .  S
C77          H79   1.082       .  S
Cu80         N83   2.068       .  S
Cu81         N91   2.094       .  S
Cu82         N84   2.083       .  S
Cu82         N90   2.083       .  S
N83          N84   1.320       .  A
N83          C87   1.346       .  A
N84          C85   1.346       .  A
C85          C86   1.389       .  A
C85          H88   1.082       .  S
C86          C87   1.386       .  A
C86        C3771   1.486       .  S
C87          H89   1.082       .  S
N90          N91   1.324       .  A
N90          C94   1.344       .  A
N91          C92   1.351       .  A
C92          C93   1.387       .  A
C92          H95   1.082       .  S
C93          C94   1.383       .  A
C93        C3744   1.481       .  S
C94          H96   1.082       .  S
N97          N98   1.323       .  A
N97         C101   1.352       .  A
N97        Cu105   2.093       .  S
N98          C99   1.337       .  A
N98        Cu104   2.059       .  S
C99         C100   1.379       .  A
C99         H102   1.082       .  S
C100        C101   1.389       .  A
C100       C3672   1.478       .  S
C101        H103   1.082       .  S
Cu104       N107   2.058       .  S
Cu105       N115   2.092       .  S
Cu106       N108   2.059       .  S
Cu106       N114   2.060       .  S
N107        N108   1.317       .  A
N107        C111   1.345       .  A
N108        C109   1.341       .  A
C109        C110   1.386       .  A
C109        H112   1.081       .  S
C110        C111   1.386       .  A
C110       C3699   1.478       .  S
C111        H113   1.082       .  S
N114        N115   1.324       .  A
N114        C118   1.340       .  A
N115        C116   1.350       .  A
C116        C117   1.387       .  A
C116        H119   1.082       .  S
C117        C118   1.379       .  A
C117       C3651   1.476       .  S
C118        H120   1.082       .  S
N121        N122   1.322       .  A
N121        C125   1.348       .  A
N121       Cu129   2.083       .  S
N122        C123   1.344       .  A
N122       Cu128   2.074       .  S
C123        C124   1.383       .  A
C123        H126   1.082       .  S
C124        C125   1.386       .  A
C124       C3600   1.478       .  S
C125        H127   1.082       .  S
Cu128       N131   2.075       .  S
Cu129       N139   2.083       .  S
Cu130       N132   2.080       .  S
Cu130       N138   2.080       .  S
N131        N132   1.322       .  A
N131        C135   1.344       .  A
N132        C133   1.347       .  A
C133        C134   1.386       .  A
C133        H136   1.082       .  S
C134        C135   1.385       .  A
C134       C3624   1.480       .  S
C135        H137   1.082       .  S
N138        N139   1.323       .  A
N138        C142   1.345       .  A
N139        C140   1.348       .  A
C140        C141   1.385       .  A
C140        H143   1.082       .  S
C141        C142   1.383       .  A
C141       C3579   1.478       .  S
C142        H144   1.082       .  S
N145        N146   1.324       .  A
N145        C149   1.350       .  A
N145       Cu153   2.098       .  S
N146        C147   1.342       .  A
N146       Cu152   2.073       .  S
C147        C148   1.382       .  A
C147        H150   1.082       .  S
C148        C149   1.389       .  A
C148       C3528   1.482       .  S
C149        H151   1.082       .  S
Cu152       N155   2.072       .  S
Cu153       N163   2.098       .  S
Cu154       N156   2.065       .  S
Cu154       N162   2.066       .  S
N155        N156   1.319       .  A
N155        C159   1.346       .  A
N156        C157   1.343       .  A
C157        C158   1.385       .  A
C157        H160   1.082       .  S
C158        C159   1.387       .  A
C158       C3552   1.480       .  S
C159        H161   1.082       .  S
N162        N163   1.323       .  A
N162        C166   1.342       .  A
N163        C164   1.351       .  A
C164        C165   1.390       .  A
C164        H167   1.082       .  S
C165        C166   1.381       .  A
C165       C3507   1.482       .  S
C166        H168   1.082       .  S
N169        N170   1.324       .  A
N169        C173   1.352       .  A
N169       Cu177   2.103       .  S
N170        C171   1.343       .  A
N170       Cu176   2.072       .  S
C171        C172   1.382       .  A
C171        H174   1.082       .  S
C172        C173   1.390       .  A
C172       C3432   1.484       .  S
C173        H175   1.082       .  S
Cu176       N179   2.071       .  S
Cu177       N187   2.104       .  S
Cu178       N180   2.070       .  S
Cu178       N186   2.071       .  S
N179        N180   1.320       .  A
N179        C183   1.344       .  A
N180        C181   1.346       .  A
C181        C182   1.386       .  A
C181        H184   1.082       .  S
C182        C183   1.386       .  A
C182       C3480   1.480       .  S
C183        H185   1.082       .  S
N186        N187   1.324       .  A
N186        C190   1.342       .  A
N187        C188   1.352       .  A
C188        C189   1.391       .  A
C188        H191   1.082       .  S
C189        C190   1.382       .  A
C189       C3459   1.486       .  S
C190        H192   1.082       .  S
O193       Cu201   1.990       .  S
O193        C203   1.277       .  A
O194       Cu201   1.989       .  S
O194        C204   1.277       .  A
O195       Cu201   1.991       .  S
O195        C205   1.277       .  A
O196       Cu201   1.993       .  S
O196        C206   1.277       .  A
O197       Cu202   2.037       .  S
O197        C206   1.281       .  A
O198       Cu202   2.036       .  S
O198        C205   1.281       .  A
O199       Cu202   2.032       .  S
O199        C204   1.280       .  A
O200       Cu202   2.026       .  S
O200        C203   1.280       .  A
Cu201      Cu202   2.368       .  S
C203       C3408   1.482       .  S
C204       C3360   1.485       .  S
C205       C3384   1.487       .  S
C206       C3339   1.484       .  S
O207       Cu215   2.040       .  S
O207        C217   1.281       .  A
O208       Cu215   2.036       .  S
O208        C218   1.281       .  A
O209       Cu215   2.033       .  S
O209        C219   1.281       .  A
O210       Cu215   2.037       .  S
O210        C220   1.281       .  A
O211       Cu216   1.988       .  S
O211        C220   1.277       .  A
O212       Cu216   1.983       .  S
O212        C219   1.276       .  A
O213       Cu216   1.992       .  S
O213        C218   1.276       .  A
O214       Cu216   1.989       .  S
O214        C217   1.277       .  A
Cu215      Cu216   2.368       .  S
C217       C3264   1.487       .  S
C218       C3240   1.485       .  S
C219       C3312   1.480       .  S
C220       C3288   1.487       .  S
O221       Cu229   1.973       .  S
O221        C231   1.275       .  A
O222       Cu229   1.975       .  S
O222        C232   1.275       .  A
O223       Cu229   1.987       .  S
O223        C233   1.276       .  A
O224       Cu229   1.980       .  S
O224        C234   1.276       .  A
O225       Cu230   2.033       .  S
O225        C234   1.280       .  A
O226       Cu230   2.033       .  S
O226        C233   1.281       .  A
O227       Cu230   2.019       .  S
O227        C232   1.279       .  A
O228       Cu230   2.019       .  S
O228        C231   1.279       .  A
Cu229      Cu230   2.371       .  S
C231       C3216   1.471       .  S
C232       C3192   1.475       .  S
C233       C3144   1.484       .  S
C234       C3168   1.479       .  S
O235       Cu243   2.038       .  S
O235        C245   1.281       .  A
O236       Cu243   2.042       .  S
O236        C246   1.282       .  A
O237       Cu243   2.031       .  S
O237        C247   1.281       .  A
O238       Cu243   2.037       .  S
O238        C248   1.281       .  A
O239       Cu244   1.995       .  S
O239        C248   1.277       .  A
O240       Cu244   1.995       .  S
O240        C247   1.277       .  A
O241       Cu244   1.973       .  S
O241        C246   1.274       .  A
O242       Cu244   1.977       .  S
O242        C245   1.275       .  A
Cu243      Cu244   2.368       .  S
C245       C3096   1.482       .  S
C246       C3120   1.483       .  S
C247       C3048   1.485       .  S
C248       C3072   1.484       .  S
O249       Cu257   2.030       .  S
O249        C259   1.280       .  A
O250       Cu257   2.033       .  S
O250        C260   1.281       .  A
O251       Cu257   2.039       .  S
O251        C261   1.282       .  A
O252       Cu257   2.035       .  S
O252        C262   1.280       .  A
O253       Cu258   1.985       .  S
O253        C262   1.277       .  A
O254       Cu258   1.987       .  S
O254        C261   1.276       .  A
O255       Cu258   1.988       .  S
O255        C260   1.276       .  A
O256       Cu258   1.986       .  S
O256        C259   1.276       .  A
Cu257      Cu258   2.368       .  S
C259       C2952   1.480       .  S
C260       C2979   1.485       .  S
C261       C3024   1.485       .  S
C262       C3000   1.482       .  S
O263       Cu271   1.985       .  S
O263        C273   1.276       .  A
O264       Cu271   1.987       .  S
O264        C274   1.276       .  A
O265       Cu271   1.997       .  S
O265        C275   1.277       .  A
O266       Cu271   1.998       .  S
O266        C276   1.277       .  A
O267       Cu272   2.022       .  S
O267        C276   1.279       .  A
O268       Cu272   2.028       .  S
O268        C275   1.280       .  A
O269       Cu272   2.025       .  S
O269        C274   1.280       .  A
O270       Cu272   2.026       .  S
O270        C273   1.280       .  A
Cu271      Cu272   2.370       .  S
C273       C2856   1.478       .  S
C274       C2880   1.481       .  S
C275       C2907   1.482       .  S
C276       C2928   1.478       .  S
N277        N278   1.321       .  A
N277        C281   1.346       .  A
N277       Cu285   2.067       .  S
N278        C279   1.339       .  A
N278       Cu284   2.059       .  S
C279        C280   1.383       .  A
C279        H282   1.081       .  S
C280        C281   1.385       .  A
C280       C3195   1.474       .  S
C281        H283   1.082       .  S
Cu284       N287   2.059       .  S
Cu285       N295   2.069       .  S
Cu286       N288   2.074       .  S
Cu286       N294   2.075       .  S
N287        N288   1.319       .  A
N287        C291   1.341       .  A
N288        C289   1.346       .  A
C289        C290   1.390       .  A
C289        H292   1.082       .  S
C290        C291   1.387       .  A
C290       C2931   1.486       .  S
C291        H293   1.082       .  S
N294        N295   1.323       .  A
N294        C298   1.342       .  A
N295        C296   1.345       .  A
C296        C297   1.383       .  A
C296        H299   1.082       .  S
C297        C298   1.383       .  A
C297       C3843   1.475       .  S
C298        H300   1.082       .  S
N301        N302   1.320       .  A
N301        C305   1.350       .  A
N301       Cu309   2.084       .  S
N302        C303   1.341       .  A
N302       Cu308   2.065       .  S
C303        C304   1.386       .  A
C303        H306   1.081       .  S
C304        C305   1.391       .  A
C304       C3027   1.487       .  S
C305        H307   1.082       .  S
Cu308       N311   2.066       .  S
Cu309       N319   2.086       .  S
Cu310       N312   2.084       .  S
Cu310       N318   2.085       .  S
N311        N312   1.321       .  A
N311        C315   1.341       .  A
N312        C313   1.350       .  A
C313        C314   1.389       .  A
C313        H316   1.082       .  S
C314        C315   1.384       .  A
C314       C2904   1.483       .  S
C315        H317   1.081       .  S
N318        N319   1.325       .  A
N318        C322   1.347       .  A
N319        C320   1.345       .  A
C320        C321   1.385       .  A
C320        H323   1.082       .  S
C321        C322   1.386       .  A
C321       C3483   1.483       .  S
C322        H324   1.082       .  S
N325        N326   1.318       .  A
N325        C329   1.348       .  A
N325       Cu333   2.070       .  S
N326        C327   1.338       .  A
N326       Cu332   2.052       .  S
C327        C328   1.383       .  A
C327        H330   1.081       .  S
C328        C329   1.388       .  A
C328       C3315   1.478       .  S
C329        H331   1.082       .  S
Cu332       N335   2.052       .  S
Cu333       N343   2.072       .  S
Cu334       N336   2.082       .  S
Cu334       N342   2.084       .  S
N335        N336   1.319       .  A
N335        C339   1.337       .  A
N336        C337   1.349       .  A
C337        C338   1.394       .  A
C337        H340   1.081       .  S
C338        C339   1.386       .  A
C338       C2883   1.489       .  S
C339        H341   1.080       .  S
N342        N343   1.325       .  A
N342        C346   1.346       .  A
N343        C344   1.342       .  A
C344        C345   1.384       .  A
C344        H347   1.081       .  S
C345        C346   1.387       .  A
C345       C3987   1.481       .  S
C346        H348   1.082       .  S
N349        N350   1.318       .  A
N349        C353   1.348       .  A
N349       Cu357   2.075       .  S
N350        C351   1.337       .  A
N350       Cu356   2.051       .  S
C351        C352   1.386       .  A
C351        H354   1.081       .  S
C352        C353   1.393       .  A
C352       C2859   1.487       .  S
C353        H355   1.082       .  S
Cu356       N359   2.051       .  S
Cu357       N367   2.077       .  S
Cu358       N360   2.075       .  S
Cu358       N366   2.078       .  S
N359        N360   1.319       .  A
N359        C363   1.338       .  A
N360        C361   1.349       .  A
C361        C362   1.390       .  A
C361        H364   1.082       .  S
C362        C363   1.383       .  A
C362       C3411   1.481       .  S
C363        H365   1.081       .  S
N366        N367   1.326       .  A
N366        C370   1.345       .  A
N367        C368   1.343       .  A
C368        C369   1.379       .  A
C368        H371   1.082       .  S
C369        C370   1.380       .  A
C369       C3696   1.467       .  S
C370        H372   1.082       .  S
N373        N374   1.318       .  A
N373        C377   1.346       .  A
N373       Cu381   2.067       .  S
N374        C375   1.340       .  A
N374       Cu380   2.063       .  S
C375        C376   1.388       .  A
C375        H378   1.081       .  S
C376        C377   1.389       .  A
C376       C3123   1.486       .  S
C377        H379   1.081       .  S
Cu380       N383   2.063       .  S
Cu381       N391   2.069       .  S
Cu382       N384   2.077       .  S
Cu382       N390   2.079       .  S
N383        N384   1.319       .  A
N383        C387   1.337       .  A
N384        C385   1.350       .  A
C385        C386   1.392       .  A
C385        H388   1.081       .  S
C386        C387   1.387       .  A
C386       C3003   1.488       .  S
C387        H389   1.080       .  S
N390        N391   1.325       .  A
N390        C394   1.344       .  A
N391        C392   1.343       .  A
C392        C393   1.381       .  A
C392        H395   1.082       .  S
C393        C394   1.384       .  A
C393       C2832   1.474       .  S
C394        H396   1.082       .  S
N397        N398   1.320       .  A
N397        C401   1.351       .  A
N397       Cu405   2.086       .  S
N398        C399   1.340       .  A
N398       Cu404   2.066       .  S
C399        C400   1.386       .  A
C399        H402   1.081       .  S
C400        C401   1.391       .  A
C400       C3267   1.487       .  S
C401        H403   1.082       .  S
Cu404       N407   2.065       .  S
Cu405       N415   2.088       .  S
Cu406       N408   2.082       .  S
Cu406       N414   2.085       .  S
N407        N408   1.319       .  A
N407        C411   1.340       .  A
N408        C409   1.350       .  A
C409        C410   1.392       .  A
C409        H412   1.081       .  S
C410        C411   1.388       .  A
C410       C2976   1.490       .  S
C411        H413   1.080       .  S
N414        N415   1.325       .  A
N414        C418   1.345       .  A
N415        C416   1.347       .  A
C416        C417   1.387       .  A
C416        H419   1.082       .  S
C417        C418   1.387       .  A
C417       C3627   1.486       .  S
C418        H420   1.081       .  S
N421        N422   1.319       .  A
N421        C425   1.349       .  A
N421       Cu429   2.077       .  S
N422        C423   1.339       .  A
N422       Cu428   2.057       .  S
C423        C424   1.385       .  A
C423        H426   1.081       .  S
C424        C425   1.390       .  A
C424       C2955   1.484       .  S
C425        H427   1.082       .  S
Cu428       N431   2.058       .  S
Cu429       N439   2.080       .  S
Cu430       N432   2.090       .  S
Cu430       N438   2.092       .  S
N431        N432   1.320       .  A
N431        C435   1.339       .  A
N432        C433   1.351       .  A
C433        C434   1.392       .  A
C433        H436   1.082       .  S
C434        C435   1.384       .  A
C434       C3336   1.486       .  S
C435        H437   1.081       .  S
N438        N439   1.326       .  A
N438        C442   1.347       .  A
N439        C440   1.344       .  A
C440        C441   1.382       .  A
C440        H443   1.082       .  S
C441        C442   1.385       .  A
C441       C2808   1.479       .  S
C442        H444   1.082       .  S
N445        N446   1.319       .  A
N445        C449   1.351       .  A
N445       Cu453   2.085       .  S
N446        C447   1.337       .  A
N446       Cu452   2.054       .  S
C447        C448   1.386       .  A
C447        H450   1.080       .  S
C448        C449   1.393       .  A
C448       C3099   1.489       .  S
C449        H451   1.081       .  S
Cu452       N455   2.054       .  S
Cu453       N463   2.087       .  S
Cu454       N456   2.058       .  S
Cu454       N462   2.061       .  S
N455        N456   1.318       .  A
N455        C459   1.339       .  A
N456        C457   1.345       .  A
C457        C458   1.387       .  A
C457        H460   1.082       .  S
C458        C459   1.385       .  A
C458       C3219   1.477       .  S
C459        H461   1.081       .  S
N462        N463   1.324       .  A
N462        C466   1.341       .  A
N463        C464   1.346       .  A
C464        C465   1.386       .  A
C464        H467   1.082       .  S
C465        C466   1.380       .  A
C465       C2784   1.476       .  S
C466        H468   1.082       .  S
N469        N470   1.321       .  A
N469        C473   1.352       .  A
N469       Cu477   2.093       .  S
N470        C471   1.340       .  A
N470       Cu476   2.071       .  S
C471        C472   1.387       .  A
C471        H474   1.081       .  S
C472        C473   1.393       .  A
C472       C3291   1.492       .  S
C473        H475   1.081       .  S
Cu476       N479   2.071       .  S
Cu477       N487   2.094       .  S
Cu478       N480   2.072       .  S
Cu478       N486   2.073       .  S
N479        N480   1.319       .  A
N479        C483   1.342       .  A
N480        C481   1.348       .  A
C481        C482   1.389       .  A
C481        H484   1.081       .  S
C482        C483   1.388       .  A
C482       C3075   1.487       .  S
C483        H485   1.081       .  S
N486        N487   1.325       .  A
N486        C490   1.343       .  A
N487        C488   1.348       .  A
C488        C489   1.387       .  A
C488        H491   1.082       .  S
C489        C490   1.381       .  A
C489       C3555   1.478       .  S
C490        H492   1.082       .  S
N493        N494   1.320       .  A
N493        C497   1.352       .  A
N493       Cu501   2.090       .  S
N494        C495   1.339       .  A
N494       Cu500   2.065       .  S
C495        C496   1.386       .  A
C495        H498   1.081       .  S
C496        C497   1.393       .  A
C496       C3363   1.490       .  S
C497        H499   1.082       .  S
Cu500       N503   2.066       .  S
Cu501       N511   2.092       .  S
Cu502       N504   2.078       .  S
Cu502       N510   2.080       .  S
N503        N504   1.319       .  A
N503        C507   1.342       .  A
N504        C505   1.348       .  A
C505        C506   1.390       .  A
C505        H508   1.082       .  S
C506        C507   1.388       .  A
C506       C3051   1.488       .  S
C507        H509   1.081       .  S
N510        N511   1.324       .  A
N510        C514   1.346       .  A
N511        C512   1.346       .  A
C512        C513   1.389       .  A
C512        H515   1.081       .  S
C513        C514   1.387       .  A
C513       C2760   1.489       .  S
C514        H516   1.081       .  S
N517        N518   1.319       .  A
N517        C521   1.348       .  A
N517       Cu525   2.081       .  S
N518        C519   1.340       .  A
N518       Cu524   2.061       .  S
C519        C520   1.388       .  A
C519        H522   1.081       .  S
C520        C521   1.393       .  A
C520       C3243   1.490       .  S
C521        H523   1.081       .  S
Cu524       N527   2.061       .  S
Cu525       N535   2.083       .  S
Cu526       N528   2.078       .  S
Cu526       N534   2.080       .  S
N527        N528   1.320       .  A
N527        C531   1.339       .  A
N528        C529   1.350       .  A
C529        C530   1.388       .  A
C529        H532   1.082       .  S
C530        C531   1.383       .  A
C530       C3171   1.479       .  S
C531        H533   1.082       .  S
N534        N535   1.324       .  A
N534        C538   1.344       .  A
N535        C536   1.345       .  A
C536        C537   1.387       .  A
C536        H539   1.081       .  S
C537        C538   1.387       .  A
C537       C3915   1.486       .  S
C538        H540   1.081       .  S
N541        N542   1.320       .  A
N541        C545   1.352       .  A
N541       Cu549   2.092       .  S
N542        C543   1.339       .  A
N542       Cu548   2.061       .  S
C543        C544   1.385       .  A
C543        H546   1.081       .  S
C544        C545   1.393       .  A
C544       C3387   1.489       .  S
C545        H547   1.082       .  S
Cu548       N551   2.061       .  S
Cu549       N559   2.094       .  S
Cu550       N552   2.082       .  S
Cu550       N558   2.084       .  S
N551        N552   1.320       .  A
N551        C555   1.340       .  A
N552        C553   1.349       .  A
C553        C554   1.391       .  A
C553        H556   1.082       .  S
C554        C555   1.386       .  A
C554       C3147   1.486       .  S
C555        H557   1.081       .  S
N558        N559   1.326       .  A
N558        C562   1.347       .  A
N559        C560   1.346       .  A
C560        C561   1.385       .  A
C560        H563   1.082       .  S
C561        C562   1.383       .  A
C561       C3768   1.480       .  S
C562        H564   1.082       .  S
N565        N566   1.325       .  A
N565        C569   1.351       .  A
N565       Cu573   2.104       .  S
N566        C567   1.344       .  A
N566       Cu572   2.075       .  S
C567        C568   1.381       .  A
C567        H570   1.082       .  S
C568        C569   1.388       .  A
C568       C2715   1.480       .  S
C569        H571   1.082       .  S
Cu572       N575   2.072       .  S
Cu573       N583   2.103       .  S
Cu574       N576   2.050       .  S
Cu574       N582   2.051       .  S
N575        N576   1.319       .  A
N575        C579   1.346       .  A
N576        C577   1.341       .  A
C577        C578   1.382       .  A
C577        H580   1.082       .  S
C578        C579   1.387       .  A
C578       C2835   1.474       .  S
C579        H581   1.082       .  S
N582        N583   1.322       .  A
N582        C586   1.339       .  A
N583        C584   1.352       .  A
C584        C585   1.394       .  A
C584        H587   1.082       .  S
C585        C586   1.380       .  A
C585       C2736   1.484       .  S
C586        H588   1.082       .  S
N589        N590   1.323       .  A
N589        C593   1.349       .  A
N589       Cu597   2.085       .  S
N590        C591   1.341       .  A
N590       Cu596   2.067       .  S
C591        C592   1.380       .  A
C591        H594   1.082       .  S
C592        C593   1.386       .  A
C592       C2664   1.474       .  S
C593        H595   1.082       .  S
Cu596       N599   2.066       .  S
Cu597       N607   2.086       .  S
Cu598       N600   2.068       .  S
Cu598       N606   2.069       .  S
N599        N600   1.319       .  A
N599        C603   1.344       .  A
N600        C601   1.345       .  A
C601        C602   1.387       .  A
C601        H604   1.082       .  S
C602        C603   1.387       .  A
C602       C2811   1.481       .  S
C603        H605   1.082       .  S
N606        N607   1.323       .  A
N606        C610   1.341       .  A
N607        C608   1.349       .  A
C608        C609   1.388       .  A
C608        H611   1.082       .  S
C609        C610   1.381       .  A
C609       C2688   1.478       .  S
C610        H612   1.082       .  S
N613        N614   1.324       .  A
N613        C617   1.349       .  A
N613       Cu621   2.090       .  S
N614        C615   1.345       .  A
N614       Cu620   2.085       .  S
C615        C616   1.384       .  A
C615        H618   1.082       .  S
C616        C617   1.386       .  A
C616       C2640   1.482       .  S
C617        H619   1.082       .  S
Cu620       N623   2.085       .  S
Cu621       N631   2.089       .  S
Cu622       N624   2.069       .  S
Cu622       N630   2.070       .  S
N623        N624   1.322       .  A
N623        C627   1.347       .  A
N624        C625   1.344       .  A
C625        C626   1.383       .  A
C625        H628   1.082       .  S
C626        C627   1.388       .  A
C626       C2763   1.480       .  S
C627        H629   1.082       .  S
N630        N631   1.322       .  A
N630        C634   1.344       .  A
N631        C632   1.349       .  A
C632        C633   1.389       .  A
C632        H635   1.082       .  S
C633        C634   1.383       .  A
C633       C2616   1.482       .  S
C634        H636   1.082       .  S
N637        N638   1.322       .  A
N637        C641   1.347       .  A
N637       Cu645   2.076       .  S
N638        C639   1.341       .  A
N638       Cu644   2.061       .  S
C639        C640   1.381       .  A
C639        H642   1.082       .  S
C640        C641   1.386       .  A
C640       C2568   1.475       .  S
C641        H643   1.082       .  S
Cu644       N647   2.060       .  S
Cu645       N655   2.076       .  S
Cu646       N648   2.063       .  S
Cu646       N654   2.063       .  S
N647        N648   1.320       .  A
N647        C651   1.342       .  A
N648        C649   1.344       .  A
C649        C650   1.386       .  A
C649        H652   1.082       .  S
C650        C651   1.384       .  A
C650       C2787   1.476       .  S
C651        H653   1.082       .  S
N654        N655   1.323       .  A
N654        C658   1.341       .  A
N655        C656   1.347       .  A
C656        C657   1.384       .  A
C656        H659   1.082       .  S
C657        C658   1.379       .  A
C657       C2595   1.469       .  S
C658        H660   1.082       .  S
O661       Cu669   2.000   1_554  S
O661        C671   1.276       .  A
O662       Cu669   1.994       .  S
O662        C672   1.277       .  A
O663       Cu669   2.024       .  S
O663        C673   1.280       .  A
O664       Cu669   2.025   1_554  S
O664        C674   1.281       .  A
O665       Cu670   2.007   1_554  S
O665        C674   1.278       .  A
O666       Cu670   2.006       .  S
O666        C673   1.278       .  A
O667       Cu670   2.015       .  S
O667        C672   1.279       .  A
O668       Cu670   2.015   1_554  S
O668        C671   1.280       .  A
Cu669      Cu670   2.369       .  S
C671       C2544   1.480       .  S
C672       C2499   1.480       .  S
C673       C2472   1.486       .  S
C674       C2520   1.487       .  S
N675        N676   1.321       .  A
N675        C679   1.346       .  A
N675       Cu683   2.080       .  S
N676        C677   1.341       .  A
N676       Cu682   2.058       .  S
C677        C678   1.382       .  A
C677        H680   1.082       .  S
C678        C679   1.388       .  A
C678       C2448   1.479       .  S
C679        H681   1.082       .  S
Cu682       N685   2.057       .  S
Cu683       N693   2.080       .  S
Cu684       N686   2.077       .  S
Cu684       N692   2.078       .  S
N685        N686   1.319       .  A
N685        C689   1.343       .  A
N686        C687   1.344       .  A
C687        C688   1.391       .  A
C687        H690   1.081       .  S
C688        C689   1.386       .  A
C688       C2496   1.486       .  S
C689        H691   1.081       .  S
N692        N693   1.323       .  A
N692        C696   1.344       .  A
N693        C694   1.347       .  A
C694        C695   1.386       .  A
C694        H697   1.082       .  S
C695        C696   1.386       .  A
C695       C2691   1.482       .  S
C696        H698   1.082       .  S
O699       Cu707   2.004       .  S
O699        C709   1.279       .  A
O700       Cu707   2.000   1_565  S
O700        C710   1.277       .  A
O701       Cu707   2.001   1_565  S
O701        C711   1.278       .  A
O702       Cu707   2.006       .  S
O702        C712   1.277       .  A
O703       Cu708   2.028       .  S
O703        C712   1.281       .  A
O704       Cu708   2.028   1_565  S
O704        C711   1.280       .  A
O705       Cu708   2.007   1_565  S
O705        C710   1.278       .  A
O706       Cu708   2.006       .  S
O706        C709   1.277       .  A
Cu707      Cu708   2.370       .  S
C709       C2400   1.479       .  S
C710       C2451   1.479       .  S
C711       C2376   1.484       .  S
C712       C2424   1.486       .  S
N713        N714   1.320       .  A
N713        C717   1.346       .  A
N713       Cu721   2.079       .  S
N714        C715   1.344       .  A
N714       Cu720   2.067       .  S
C715        C716   1.387       .  A
C715        H718   1.081       .  S
C716        C717   1.389       .  A
C716       C2475   1.487       .  S
C717        H719   1.081       .  S
Cu720       N723   2.067       .  S
Cu721       N731   2.080       .  S
Cu722       N724   2.089       .  S
Cu722       N730   2.090       .  S
N723        N724   1.322       .  A
N723        C727   1.343       .  A
N724        C725   1.347       .  A
C725        C726   1.391       .  A
C725        H728   1.081       .  S
C726        C727   1.385       .  A
C726       C2352   1.487       .  S
C727        H729   1.081       .  S
N730        N731   1.323       .  A
N730        C734   1.350       .  A
N731        C732   1.344       .  A
C732        C733   1.385       .  A
C732        H735   1.082       .  S
C733        C734   1.389       .  A
C733       C2643   1.486       .  S
C734        H736   1.082       .  S
O737       Cu745   2.005   1_455  S
O737        C747   1.277       .  A
O738       Cu745   2.001       .  S
O738        C748   1.278       .  A
O739       Cu745   2.010       .  S
O739        C749   1.279       .  A
O740       Cu745   2.005   1_455  S
O740        C750   1.278       .  A
O741       Cu746   2.003   1_455  S
O741        C750   1.278       .  A
O742       Cu746   2.007       .  S
O742        C749   1.278       .  A
O743       Cu746   2.015       .  S
O743        C748   1.279       .  A
O744       Cu746   2.010   1_455  S
O744        C747   1.279       .  A
Cu745      Cu746   2.370       .  S
C747       C2331   1.482       .  S
C748       C2355   1.481       .  S
C749       C2283   1.482       .  S
C750       C2307   1.478       .  S
N751        N752   1.321       .  A
N751        C755   1.344       .  A
N751       Cu759   2.075       .  S
N752        C753   1.346       .  A
N752       Cu758   2.077       .  S
C753        C754   1.388       .  A
C753        H756   1.081       .  S
C754        C755   1.388       .  A
C754       C2280   1.486       .  S
C755        H757   1.081       .  S
Cu758       N761   2.078       .  S
Cu759       N769   2.075       .  S
Cu760       N762   2.077       .  S
Cu760       N768   2.076       .  S
N761        N762   1.321       .  A
N761        C765   1.343       .  A
N762        C763   1.347       .  A
C763        C764   1.390       .  A
C763        H766   1.081       .  S
C764        C765   1.390       .  A
C764       C2379   1.492       .  S
C765        H767   1.081       .  S
N768        N769   1.323       .  A
N768        C772   1.345       .  A
N769        C770   1.346       .  A
C770        C771   1.384       .  A
C770        H773   1.082       .  S
C771        C772   1.384       .  A
C771       C2739   1.477       .  S
C772        H774   1.082       .  S
O775       Cu783   2.008       .  S
O775        C785   1.278       .  A
O776       Cu783   2.003   1_554  S
O776        C786   1.278       .  A
O777       Cu783   2.019   1_554  S
O777        C787   1.279       .  A
O778       Cu783   2.018       .  S
O778        C788   1.280       .  A
O779       Cu784   2.000       .  S
O779        C788   1.277       .  A
O780       Cu784   2.003   1_554  S
O780        C787   1.278       .  A
O781       Cu784   2.006   1_554  S
O781        C786   1.278       .  A
O782       Cu784   2.007       .  S
O782        C785   1.279       .  A
Cu783      Cu784   2.370       .  S
C785       C2184   1.481       .  S
C786       C2259   1.480       .  S
C787       C2208   1.484       .  S
C788       C2232   1.482       .  S
N789        N790   1.319       .  A
N789        C793   1.346       .  A
N789       Cu797   2.076       .  S
N790        C791   1.340       .  A
N790       Cu796   2.059       .  S
C791        C792   1.387       .  A
C791        H794   1.080       .  S
C792        C793   1.391       .  A
C792       C2187   1.488       .  S
C793        H795   1.081       .  S
Cu796       N799   2.059       .  S
Cu797       N807   2.077       .  S
Cu798       N800   2.073       .  S
Cu798       N806   2.073       .  S
N799        N800   1.320       .  A
N799        C803   1.341       .  A
N800        C801   1.344       .  A
C801        C802   1.390       .  A
C801        H804   1.081       .  S
C802        C803   1.386       .  A
C802       C2304   1.485       .  S
C803        H805   1.081       .  S
N806        N807   1.323       .  A
N806        C810   1.347       .  A
N807        C808   1.342       .  A
C808        C809   1.384       .  A
C808        H811   1.082       .  S
C809        C810   1.385       .  A
C809       C3675   1.478       .  S
C810        H812   1.082       .  S
N813        N814   1.321       .  A
N813        C817   1.345       .  A
N813       Cu821   2.073       .  S
N814        C815   1.345       .  A
N814       Cu820   2.078       .  S
C815        C816   1.388       .  A
C815        H818   1.081       .  S
C816        C817   1.387       .  A
C816       C2211   1.485       .  S
C817        H819   1.082       .  S
Cu820       N823   2.078       .  S
Cu821       N831   2.073       .  S
Cu822       N824   2.095       .  S
Cu822       N830   2.095       .  S
N823        N824   1.322       .  A
N823        C827   1.345       .  A
N824        C825   1.349       .  A
C825        C826   1.392       .  A
C825        H828   1.081       .  S
C826        C827   1.388       .  A
C826       C2160   1.492       .  S
C827        H829   1.081       .  S
N830        N831   1.323       .  A
N830        C834   1.349       .  A
N831        C832   1.345       .  A
C832        C833   1.384       .  A
C832        H835   1.082       .  S
C833        C834   1.390       .  A
C833       C3963   1.486       .  S
C834        H836   1.082       .  S
O837       Cu845   2.015   1_455  S
O837        C847   1.278       .  A
O838       Cu845   2.013       .  S
O838        C848   1.279       .  A
O839       Cu845   2.018       .  S
O839        C849   1.280       .  A
O840       Cu845   2.023   1_455  S
O840        C850   1.280       .  A
O841       Cu846   1.996   1_455  S
O841        C850   1.277       .  A
O842       Cu846   2.005       .  S
O842        C849   1.278       .  A
O843       Cu846   2.023       .  S
O843        C848   1.280       .  A
O844       Cu846   2.021   1_455  S
O844        C847   1.280       .  A
Cu845      Cu846   2.369       .  S
C847       C2163   1.482       .  S
C848       C2112   1.489       .  S
C849       C2091   1.484       .  S
C850       C2136   1.483       .  S
N851        N852   1.322       .  A
N851        C855   1.347       .  A
N851       Cu859   2.084       .  S
N852        C853   1.341       .  A
N852       Cu858   2.068       .  S
C853        C854   1.385       .  A
C853        H856   1.081       .  S
C854        C855   1.390       .  A
C854       C2547   1.485       .  S
C855        H857   1.081       .  S
Cu858       N861   2.068       .  S
Cu859       N869   2.084       .  S
Cu860       N862   2.068       .  S
Cu860       N868   2.069       .  S
N861        N862   1.320       .  A
N861        C865   1.345       .  A
N862        C863   1.344       .  A
C863        C864   1.385       .  A
C863        H866   1.082       .  S
C864        C865   1.385       .  A
C864       C2088   1.477       .  S
C865        H867   1.082       .  S
N868        N869   1.323       .  A
N868        C872   1.342       .  A
N869        C870   1.349       .  A
C870        C871   1.386       .  A
C870        H873   1.082       .  S
C871        C872   1.382       .  A
C871       C3531   1.477       .  S
C872        H874   1.082       .  S
N875        N876   1.321       .  A
N875        C879   1.347       .  A
N875       Cu883   2.089       .  S
N876        C877   1.344       .  A
N876       Cu882   2.070       .  S
C877        C878   1.387       .  A
C877        H880   1.081       .  S
C878        C879   1.392       .  A
C878       C2064   1.491       .  S
C879        H881   1.081       .  S
Cu882       N885   2.070       .  S
Cu883       N893   2.089       .  S
Cu884       N886   2.090       .  S
Cu884       N892   2.091       .  S
N885        N886   1.321       .  A
N885        C889   1.344       .  A
N886        C887   1.348       .  A
C887        C888   1.393       .  A
C887        H890   1.081       .  S
C888        C889   1.388       .  A
C888       C2115   1.494       .  S
C889        H891   1.081       .  S
N892        N893   1.324       .  A
N892        C896   1.347       .  A
N893        C894   1.348       .  A
C894        C895   1.387       .  A
C894        H897   1.082       .  S
C895        C896   1.387       .  A
C895       C2712   1.487       .  S
C896        H898   1.082       .  S
O899       Cu907   2.001   1_565  S
O899        C909   1.277       .  A
O900       Cu907   1.999       .  S
O900        C910   1.277       .  A
O901       Cu907   2.028       .  S
O901        C911   1.281       .  A
O902       Cu907   2.024   1_565  S
O902        C912   1.281       .  A
O903       Cu908   2.007   1_565  S
O903        C912   1.277       .  A
O904       Cu908   2.009       .  S
O904        C911   1.278       .  A
O905       Cu908   2.012       .  S
O905        C910   1.279       .  A
O906       Cu908   2.010   1_565  S
O906        C909   1.279       .  A
Cu907      Cu908   2.369       .  S
C909       C1992   1.479       .  S
C910       C2043   1.479       .  S
C911       C2016   1.489       .  S
C912       C2067   1.487       .  S
N913        N914   1.323       .  A
N913        C917   1.347       .  A
N913       Cu921   2.088       .  S
N914        C915   1.345       .  A
N914       Cu920   2.079       .  S
C915        C916   1.387       .  A
C915        H918   1.081       .  S
C916        C917   1.389       .  A
C916       C2523   1.489       .  S
C917        H919   1.081       .  S
Cu920       N923   2.079       .  S
Cu921       N931   2.087       .  S
Cu922       N924   2.065       .  S
Cu922       N930   2.066       .  S
N923        N924   1.320       .  A
N923        C927   1.345       .  A
N924        C925   1.343       .  A
C925        C926   1.388       .  A
C925        H928   1.081       .  S
C926        C927   1.391       .  A
C926       C1995   1.489       .  S
C927        H929   1.081       .  S
N930        N931   1.322       .  A
N930        C934   1.343       .  A
N931        C932   1.347       .  A
C932        C933   1.389       .  A
C932        H935   1.082       .  S
C933        C934   1.384       .  A
C933       C3603   1.483       .  S
C934        H936   1.082       .  S
N937        N938   1.322       .  A
N937        C941   1.347       .  A
N937       Cu945   2.082       .  S
N938        C939   1.346       .  A
N938       Cu944   2.085       .  S
C939        C940   1.390       .  A
C939        H942   1.081       .  S
C940        C941   1.389       .  A
C940       C1968   1.491       .  S
C941        H943   1.081       .  S
Cu944       N947   2.085       .  S
Cu945       N955   2.082       .  S
Cu946       N948   2.084       .  S
Cu946       N954   2.084       .  S
N947        N948   1.322       .  A
N947        C951   1.347       .  A
N948        C949   1.347       .  A
C949        C950   1.389       .  A
C949        H952   1.081       .  S
C950        C951   1.390       .  A
C950       C2019   1.491       .  S
C951        H953   1.081       .  S
N954        N955   1.322       .  A
N954        C958   1.347       .  A
N955        C956   1.346       .  A
C956        C957   1.387       .  A
C956        H959   1.082       .  S
C957        C958   1.388       .  A
C957       C3888   1.486       .  S
C958        H960   1.082       .  S
O961       Cu969   2.024   1_554  S
O961        C971   1.280       .  A
O962       Cu969   2.021       .  S
O962        C972   1.280       .  A
O963       Cu969   2.017       .  S
O963        C973   1.279       .  A
O964       Cu969   2.012   1_554  S
O964        C974   1.279       .  A
O965       Cu970   2.014   1_554  S
O965        C974   1.279       .  A
O966       Cu970   2.013       .  S
O966        C973   1.279       .  A
O967       Cu970   2.012       .  S
O967        C972   1.279       .  A
O968       Cu970   2.014   1_554  S
O968        C971   1.279       .  A
Cu969      Cu970   2.368       .  S
C971       C1971   1.489       .  S
C972       C1920   1.487       .  S
C973       C1896   1.487       .  S
C974       C1944   1.485       .  S
N975        N976   1.323       .  A
N975        C979   1.347       .  A
N975       Cu983   2.087       .  S
N976        C977   1.347       .  A
N976       Cu982   2.080       .  S
C977        C978   1.386       .  A
C977        H980   1.082       .  S
C978        C979   1.387       .  A
C978       C2427   1.483       .  S
C979        H981   1.082       .  S
Cu982       N985   2.080       .  S
Cu983       N993   2.087       .  S
Cu984       N986   2.086       .  S
Cu984       N992   2.087       .  S
N985        N986   1.322       .  A
N985        C989   1.345       .  A
N986        C987   1.348       .  A
C987        C988   1.390       .  A
C987        H990   1.082       .  S
C988        C989   1.388       .  A
C988       C1899   1.490       .  S
C989        H991   1.081       .  S
N992        N993   1.323       .  A
N992        C996   1.346       .  A
N993        C994   1.348       .  A
C994        C995   1.388       .  A
C994        H997   1.082       .  S
C995        C996   1.388       .  A
C995       C3747   1.489       .  S
C996        H998   1.082       .  S
N999       N1000   1.321       .  A
N999       C1003   1.346       .  A
N999      Cu1007   2.082       .  S
N1000      C1001   1.345       .  A
N1000     Cu1006   2.074       .  S
C1001      C1002   1.388       .  A
C1001      H1004   1.081       .  S
C1002      C1003   1.390       .  A
C1002      C1872   1.490       .  S
C1003      H1005   1.081       .  S
Cu1006     N1009   2.074       .  S
Cu1007     N1017   2.082       .  S
Cu1008     N1010   2.086       .  S
Cu1008     N1016   2.086       .  S
N1009      N1010   1.321       .  A
N1009      C1013   1.344       .  A
N1010      C1011   1.348       .  A
C1011      C1012   1.392       .  A
C1011      H1014   1.081       .  S
C1012      C1013   1.389       .  A
C1012      C1923   1.493       .  S
C1013      H1015   1.081       .  S
N1016      N1017   1.323       .  A
N1016      C1020   1.347       .  A
N1017      C1018   1.347       .  A
C1018      C1019   1.386       .  A
C1018      H1021   1.082       .  S
C1019      C1020   1.386       .  A
C1019      C2619   1.484       .  S
C1020      H1022   1.082       .  S
N1023      N1024   1.321       .  A
N1023      C1027   1.345       .  A
N1023     Cu1031   2.071       .  S
N1024      C1025   1.343       .  A
N1024     Cu1030   2.076       .  S
C1025      C1026   1.390       .  A
C1025      H1028   1.081       .  S
C1026      C1027   1.389       .  A
C1026      C2235   1.489       .  S
C1027      H1029   1.081       .  S
Cu1030     N1033   2.076       .  S
Cu1031     N1041   2.071       .  S
Cu1032     N1034   2.071       .  S
Cu1032     N1040   2.071       .  S
N1033      N1034   1.320       .  A
N1033      C1037   1.345       .  A
N1034      C1035   1.344       .  A
C1035      C1036   1.389       .  A
C1035      H1038   1.081       .  S
C1036      C1037   1.390       .  A
C1036      C1848   1.490       .  S
C1037      H1039   1.081       .  S
N1040      N1041   1.322       .  A
N1040      C1044   1.344       .  A
N1041      C1042   1.345       .  A
C1042      C1043   1.383       .  A
C1042      H1045   1.082       .  S
C1043      C1044   1.383       .  A
C1043      C2667   1.474       .  S
C1044      H1046   1.082       .  S
O1047     Cu1055   2.009   1_655  S
O1047      C1057   1.278       .  A
O1048     Cu1055   2.003       .  S
O1048      C1058   1.278       .  A
O1049     Cu1055   2.001       .  S
O1049      C1059   1.277       .  A
O1050     Cu1055   2.003   1_655  S
O1050      C1060   1.278       .  A
O1051     Cu1056   2.014   1_655  S
O1051      C1060   1.279       .  A
O1052     Cu1056   2.013       .  S
O1052      C1059   1.279       .  A
O1053     Cu1056   2.017       .  S
O1053      C1058   1.279       .  A
O1054     Cu1056   2.014   1_655  S
O1054      C1057   1.279       .  A
Cu1055    Cu1056   2.370       .  S
C1057      C1875   1.484       .  S
C1058      C1800   1.481       .  S
C1059      C1824   1.481       .  S
C1060      C1776   1.480       .  S
N1061      N1062   1.320       .  A
N1061      C1065   1.342       .  A
N1061     Cu1069   2.061       .  S
N1062      C1063   1.347       .  A
N1062     Cu1068   2.076       .  S
C1063      C1064   1.388       .  A
C1063      H1066   1.082       .  S
C1064      C1065   1.384       .  A
C1064      C1779   1.480       .  S
C1065      H1067   1.082       .  S
Cu1068     N1071   2.076       .  S
Cu1069     N1079   2.062       .  S
Cu1070     N1072   2.071       .  S
Cu1070     N1078   2.071       .  S
N1071      N1072   1.323       .  A
N1071      C1075   1.342       .  A
N1072      C1073   1.346       .  A
C1073      C1074   1.385       .  A
C1073      H1076   1.082       .  S
C1074      C1075   1.385       .  A
C1074      C2403   1.480       .  S
C1075      H1077   1.081       .  S
N1078      N1079   1.321       .  A
N1078      C1082   1.345       .  A
N1079      C1080   1.341       .  A
C1080      C1081   1.383       .  A
C1080      H1083   1.082       .  S
C1081      C1082   1.386       .  A
C1081      C2592   1.477       .  S
C1082      H1084   1.082       .  S
N1085      N1086   1.320       .  A
N1085      C1089   1.344       .  A
N1085     Cu1093   2.071       .  S
N1086      C1087   1.343       .  A
N1086     Cu1092   2.067       .  S
C1087      C1088   1.388       .  A
C1087      H1090   1.081       .  S
C1088      C1089   1.390       .  A
C1088      C1752   1.487       .  S
C1089      H1091   1.081       .  S
Cu1092     N1095   2.067       .  S
Cu1093     N1103   2.071       .  S
Cu1094     N1096   2.072       .  S
Cu1094     N1102   2.072       .  S
N1095      N1096   1.320       .  A
N1095      C1099   1.342       .  A
N1096      C1097   1.345       .  A
C1097      C1098   1.388       .  A
C1097      H1100   1.081       .  S
C1098      C1099   1.387       .  A
C1098      C1803   1.485       .  S
C1099      H1101   1.081       .  S
N1102      N1103   1.323       .  A
N1102      C1106   1.345       .  A
N1103      C1104   1.344       .  A
C1104      C1105   1.383       .  A
C1104      H1107   1.082       .  S
C1105      C1106   1.382       .  A
C1105      C3819   1.473       .  S
C1106      H1108   1.082       .  S
O1109     Cu1117   2.006   1_545  S
O1109      C1119   1.278       .  A
O1110     Cu1117   2.014       .  S
O1110      C1120   1.279       .  A
O1111     Cu1117   2.007       .  S
O1111      C1121   1.278       .  A
O1112     Cu1117   2.008   1_545  S
O1112      C1122   1.278       .  A
O1113     Cu1118   2.028   1_545  S
O1113      C1122   1.281       .  A
O1114     Cu1118   2.032       .  S
O1114      C1121   1.281       .  A
O1115     Cu1118   2.008       .  S
O1115      C1120   1.278       .  A
O1116     Cu1118   2.001   1_545  S
O1116      C1119   1.277       .  A
Cu1117    Cu1118   2.369       .  S
C1119      C1755   1.475       .  S
C1120      C1851   1.484       .  S
C1121      C1704   1.490       .  S
C1122      C1731   1.489       .  S
N1123      N1124   1.321       .  A
N1123      C1127   1.350       .  A
N1123     Cu1131   2.098       .  S
N1124      C1125   1.343       .  A
N1124     Cu1130   2.068       .  S
C1125      C1126   1.386       .  A
C1125      H1128   1.081       .  S
C1126      C1127   1.394       .  A
C1126      C1707   1.493       .  S
C1127      H1129   1.081       .  S
Cu1130     N1133   2.067       .  S
Cu1131     N1141   2.098       .  S
Cu1132     N1134   2.079       .  S
Cu1132     N1140   2.080       .  S
N1133      N1134   1.320       .  A
N1133      C1137   1.342       .  A
N1134      C1135   1.347       .  A
C1135      C1136   1.391       .  A
C1135      H1138   1.081       .  S
C1136      C1137   1.388       .  A
C1136      C2328   1.490       .  S
C1137      H1139   1.081       .  S
N1140      N1141   1.324       .  A
N1140      C1144   1.346       .  A
N1141      C1142   1.348       .  A
C1142      C1143   1.388       .  A
C1142      H1145   1.082       .  S
C1143      C1144   1.385       .  A
C1143      C3456   1.487       .  S
C1144      H1146   1.082       .  S
N1147      N1148   1.321       .  A
N1147      C1151   1.347       .  A
N1147     Cu1155   2.082       .  S
N1148      C1149   1.341       .  A
N1148     Cu1154   2.057       .  S
C1149      C1150   1.383       .  A
C1149      H1152   1.081       .  S
C1150      C1151   1.390       .  A
C1150      C2256   1.482       .  S
C1151      H1153   1.081       .  S
Cu1154     N1157   2.057       .  S
Cu1155     N1165   2.082       .  S
Cu1156     N1158   2.075       .  S
Cu1156     N1164   2.076       .  S
N1157      N1158   1.320       .  A
N1157      C1161   1.343       .  A
N1158      C1159   1.343       .  A
C1159      C1160   1.389       .  A
C1159      H1162   1.081       .  S
C1160      C1161   1.385       .  A
C1160      C1683   1.482       .  S
C1161      H1163   1.081       .  S
N1164      N1165   1.322       .  A
N1164      C1168   1.346       .  A
N1165      C1166   1.345       .  A
C1166      C1167   1.387       .  A
C1166      H1169   1.082       .  S
C1167      C1168   1.386       .  A
C1167      C3576   1.484       .  S
C1168      H1170   1.082       .  S
O1171     Cu1179   1.992       .  S
O1171      C1181   1.276       .  A
O1172     Cu1179   1.997   1_545  S
O1172      C1182   1.277       .  A
O1173     Cu1179   2.011   1_545  S
O1173      C1183   1.279       .  A
O1174     Cu1179   2.010       .  S
O1174      C1184   1.278       .  A
O1175     Cu1180   2.021       .  S
O1175      C1184   1.280       .  A
O1176     Cu1180   2.027   1_545  S
O1176      C1183   1.280       .  A
O1177     Cu1180   2.017   1_545  S
O1177      C1182   1.279       .  A
O1178     Cu1180   2.014       .  S
O1178      C1181   1.280       .  A
Cu1179    Cu1180   2.369       .  S
C1181      C1680   1.479       .  S
C1182      C1635   1.482       .  S
C1183      C1659   1.489       .  S
C1184      C1608   1.485       .  S
N1185      N1186   1.322       .  A
N1185      C1189   1.346       .  A
N1185     Cu1193   2.086       .  S
N1186      C1187   1.346       .  A
N1186     Cu1192   2.079       .  S
C1187      C1188   1.389       .  A
C1187      H1190   1.081       .  S
C1188      C1189   1.390       .  A
C1188      C1611   1.492       .  S
C1189      H1191   1.081       .  S
Cu1192     N1195   2.078       .  S
Cu1193     N1203   2.086       .  S
Cu1194     N1196   2.076       .  S
Cu1194     N1202   2.076       .  S
N1195      N1196   1.321       .  A
N1195      C1199   1.345       .  A
N1196      C1197   1.345       .  A
C1197      C1198   1.388       .  A
C1197      H1200   1.081       .  S
C1198      C1199   1.390       .  A
C1198      C2139   1.489       .  S
C1199      H1201   1.081       .  S
N1202      N1203   1.322       .  A
N1202      C1206   1.345       .  A
N1203      C1204   1.348       .  A
C1204      C1205   1.387       .  A
C1204      H1207   1.082       .  S
C1205      C1206   1.385       .  A
C1205      C3435   1.483       .  S
C1206      H1208   1.082       .  S
N1209      N1210   1.320       .  A
N1209      C1213   1.345       .  A
N1209     Cu1217   2.077       .  S
N1210      C1211   1.347       .  A
N1210     Cu1216   2.082       .  S
C1211      C1212   1.392       .  A
C1211      H1214   1.081       .  S
C1212      C1213   1.391       .  A
C1212      C1587   1.495       .  S
C1213      H1215   1.081       .  S
Cu1216     N1219   2.083       .  S
Cu1217     N1227   2.078       .  S
Cu1218     N1220   2.089       .  S
Cu1218     N1226   2.089       .  S
N1219      N1220   1.323       .  A
N1219      C1223   1.343       .  A
N1220      C1221   1.350       .  A
C1221      C1222   1.390       .  A
C1221      H1224   1.082       .  S
C1222      C1223   1.388       .  A
C1222      C1656   1.491       .  S
C1223      H1225   1.081       .  S
N1226      N1227   1.323       .  A
N1226      C1230   1.348       .  A
N1227      C1228   1.344       .  A
C1228      C1229   1.386       .  A
C1228      H1231   1.081       .  S
C1229      C1230   1.389       .  A
C1229      C3867   1.487       .  S
C1230      H1232   1.082       .  S
N1233      N1234   1.321       .  A
N1233      C1237   1.345       .  A
N1233     Cu1241   2.075       .  S
N1234      C1235   1.345       .  A
N1234     Cu1240   2.073       .  S
C1235      C1236   1.387       .  A
C1235      H1238   1.081       .  S
C1236      C1237   1.388       .  A
C1236      C1563   1.486       .  S
C1237      H1239   1.081       .  S
Cu1240     N1243   2.073       .  S
Cu1241     N1251   2.076       .  S
Cu1242     N1244   2.090       .  S
Cu1242     N1250   2.091       .  S
N1243      N1244   1.321       .  A
N1243      C1247   1.343       .  A
N1244      C1245   1.349       .  A
C1245      C1246   1.392       .  A
C1245      H1248   1.081       .  S
C1246      C1247   1.387       .  A
C1246      C1728   1.491       .  S
C1247      H1249   1.081       .  S
N1250      N1251   1.323       .  A
N1250      C1254   1.346       .  A
N1251      C1252   1.346       .  A
C1252      C1253   1.385       .  A
C1252      H1255   1.082       .  S
C1253      C1254   1.389       .  A
C1253      C3723   1.485       .  S
C1254      H1256   1.082       .  S
O1257     Cu1265   2.009       .  S
O1257      C1267   1.278       .  A
O1258     Cu1265   2.015   1_554  S
O1258      C1268   1.279       .  A
O1259     Cu1265   2.012   1_554  S
O1259      C1269   1.279       .  A
O1260     Cu1265   2.008       .  S
O1260      C1270   1.278       .  A
O1261     Cu1266   2.016       .  S
O1261      C1270   1.279       .  A
O1262     Cu1266   2.017   1_554  S
O1262      C1269   1.279       .  A
O1263     Cu1266   2.017   1_554  S
O1263      C1268   1.279       .  A
O1264     Cu1266   2.016       .  S
O1264      C1267   1.279       .  A
Cu1265    Cu1266   2.369       .  S
C1267      C1560   1.485       .  S
C1268      C1536   1.486       .  S
C1269      C1584   1.485       .  S
C1270      C1515   1.484       .  S
N1271      N1272   1.320       .  A
N1271      C1275   1.345       .  A
N1271     Cu1279   2.074       .  S
N1272      C1273   1.342       .  A
N1272     Cu1278   2.061       .  S
C1273      C1274   1.384       .  A
C1273      H1276   1.082       .  S
C1274      C1275   1.387       .  A
C1274      C1827   1.479       .  S
C1275      H1277   1.082       .  S
Cu1278     N1281   2.061       .  S
Cu1279     N1289   2.075       .  S
Cu1280     N1282   2.081       .  S
Cu1280     N1288   2.081       .  S
N1281      N1282   1.320       .  A
N1281      C1285   1.341       .  A
N1282      C1283   1.348       .  A
C1283      C1284   1.390       .  A
C1283      H1286   1.081       .  S
C1284      C1285   1.385       .  A
C1284      C1512   1.485       .  S
C1285      H1287   1.081       .  S
N1288      N1289   1.323       .  A
N1288      C1292   1.344       .  A
N1289      C1290   1.345       .  A
C1290      C1291   1.384       .  A
C1290      H1293   1.082       .  S
C1291      C1292   1.386       .  A
C1291      C3648   1.479       .  S
C1292      H1294   1.082       .  S
N1295      N1296   1.320       .  A
N1295      C1299   1.346       .  A
N1295     Cu1303   2.078       .  S
N1296      C1297   1.345       .  A
N1296     Cu1302   2.074       .  S
C1297      C1298   1.388       .  A
C1297      H1300   1.081       .  S
C1298      C1299   1.389       .  A
C1298      C1488   1.487       .  S
C1299      H1301   1.081       .  S
Cu1302     N1305   2.075       .  S
Cu1303     N1313   2.079       .  S
Cu1304     N1306   2.099       .  S
Cu1304     N1312   2.099       .  S
N1305      N1306   1.322       .  A
N1305      C1309   1.344       .  A
N1306      C1307   1.349       .  A
C1307      C1308   1.394       .  A
C1307      H1310   1.081       .  S
C1308      C1309   1.388       .  A
C1308      C1539   1.495       .  S
C1309      H1311   1.080       .  S
N1312      N1313   1.323       .  A
N1312      C1316   1.351       .  A
N1313      C1314   1.344       .  A
C1314      C1315   1.387       .  A
C1314      H1317   1.081       .  S
C1315      C1316   1.393       .  A
C1315      C3939   1.493       .  S
C1316      H1318   1.082       .  S
N1319      N1320   1.322       .  A
N1319      C1323   1.346       .  A
N1319     Cu1327   2.084       .  S
N1320      C1321   1.345       .  A
N1320     Cu1326   2.073       .  S
C1321      C1322   1.387       .  A
C1321      H1324   1.081       .  S
C1322      C1323   1.389       .  A
C1322      C1467   1.487       .  S
C1323      H1325   1.081       .  S
Cu1326     N1329   2.073       .  S
Cu1327     N1337   2.084       .  S
Cu1328     N1330   2.071       .  S
Cu1328     N1336   2.072       .  S
N1329      N1330   1.320       .  A
N1329      C1333   1.343       .  A
N1330      C1331   1.345       .  A
C1331      C1332   1.388       .  A
C1331      H1334   1.081       .  S
C1332      C1333   1.388       .  A
C1332      C1632   1.486       .  S
C1333      H1335   1.081       .  S
N1336      N1337   1.323       .  A
N1336      C1340   1.344       .  A
N1337      C1338   1.347       .  A
C1338      C1339   1.386       .  A
C1338      H1341   1.082       .  S
C1339      C1340   1.383       .  A
C1339      C3795   1.479       .  S
C1340      H1342   1.082       .  S
N1343      N1344   1.321       .  A
N1343      C1347   1.346       .  A
N1343     Cu1351   2.076       .  S
N1344      C1345   1.345       .  A
N1344     Cu1350   2.077       .  S
C1345      C1346   1.389       .  A
C1345      H1348   1.081       .  S
C1346      C1347   1.389       .  A
C1346      C1947   1.488       .  S
C1347      H1349   1.081       .  S
Cu1350     N1353   2.078       .  S
Cu1351     N1361   2.077       .  S
Cu1352     N1354   2.088       .  S
Cu1352     N1360   2.089       .  S
N1353      N1354   1.322       .  A
N1353      C1357   1.344       .  A
N1354      C1355   1.348       .  A
C1355      C1356   1.391       .  A
C1355      H1358   1.081       .  S
C1356      C1357   1.389       .  A
C1356      C1443   1.492       .  S
C1357      H1359   1.081       .  S
N1360      N1361   1.323       .  A
N1360      C1364   1.347       .  A
N1361      C1362   1.346       .  A
C1362      C1363   1.384       .  A
C1362      H1365   1.082       .  S
C1363      C1364   1.387       .  A
C1363      C3504   1.483       .  S
C1364      H1366   1.082       .  S
O1367     Cu1375   2.017       .  S
O1367      C1377   1.280       .  A
O1368     Cu1375   2.023   1_655  S
O1368      C1378   1.279       .  A
O1369     Cu1375   2.009   1_655  S
O1369      C1379   1.278       .  A
O1370     Cu1375   2.013       .  S
O1370      C1380   1.279       .  A
O1371     Cu1376   2.011       .  S
O1371      C1380   1.279       .  A
O1372     Cu1376   2.011   1_655  S
O1372      C1379   1.278       .  A
O1373     Cu1376   2.010   1_655  S
O1373      C1378   1.279       .  A
O1374     Cu1376   2.011       .  S
O1374      C1377   1.278       .  A
Cu1375    Cu1376   2.369       .  S
C1377      C1464   1.486       .  S
C1378      C1440   1.487       .  S
C1379      C1416   1.483       .  S
C1380      C1491   1.485       .  S
N1381      N1382   1.318       .  A
N1381      C1385   1.343       .  A
N1381     Cu1389   2.064       .  S
N1382      C1383   1.342       .  A
N1382     Cu1388   2.060       .  S
C1383      C1384   1.388       .  A
C1383      H1386   1.081       .  S
C1384      C1385   1.389       .  A
C1384      C2040   1.486       .  S
C1385      H1387   1.081       .  S
Cu1388     N1391   2.061       .  S
Cu1389     N1399   2.065       .  S
Cu1390     N1392   2.081       .  S
Cu1390     N1398   2.081       .  S
N1391      N1392   1.321       .  A
N1391      C1395   1.341       .  A
N1392      C1393   1.346       .  A
C1393      C1394   1.390       .  A
C1393      H1396   1.081       .  S
C1394      C1395   1.384       .  A
C1394      C1419   1.484       .  S
C1395      H1397   1.081       .  S
N1398      N1399   1.323       .  A
N1398      C1402   1.346       .  A
N1399      C1400   1.342       .  A
C1400      C1401   1.382       .  A
C1400      H1403   1.082       .  S
C1401      C1402   1.387       .  A
C1401      C2571   1.478       .  S
C1402      H1404   1.082       .  S
C1405      C1406   1.399       .  A
C1405      C1410   1.403       .  A
C1405      H1421   1.083       .  S
C1406      C1407   1.403       .  A
C1406      H1422   1.084       .  S
C1407      C1417   1.402       .  A
C1407      C1408   1.411       .  A
C1408      C1414   1.411       .  A
C1408      C1409   1.412       .  A
C1409      C1411   1.410       .  A
C1409      C1410   1.411       .  A
C1410      C1418   1.403       .  A
C1411      C1420   1.401       .  A
C1411      C1412   1.404       .  A
C1412      C1413   1.399       .  A
C1412      H1423   1.084       .  S
C1413      C1414   1.403       .  A
C1413      H1424   1.083       .  S
C1414      C1415   1.403       .  A
C1415      C1416   1.408       .  A
C1415      H1425   1.084       .  S
C1416      C1417   1.408       .  A
C1417      H1426   1.084       .  S
C1418      C1419   1.407       .  A
C1418      H1427   1.083       .  S
C1419      C1420   1.408       .  A
C1420      H1428   1.083       .  S
C1429      C1430   1.398       .  A
C1429      C1434   1.403       .  A
C1429      H1445   1.083       .  S
C1430      C1431   1.403       .  A
C1430      H1446   1.084       .  S
C1431      C1441   1.402       .  A
C1431      C1432   1.411       .  A
C1432      C1438   1.412       .  A
C1432      C1433   1.414       .  A
C1433      C1435   1.411       .  A
C1433      C1434   1.411       .  A
C1434      C1442   1.403       .  A
C1435      C1444   1.408       .  A
C1435      C1436   1.405       .  A
C1436      C1437   1.402       .  A
C1436      H1447   1.083       .  S
C1437      C1438   1.405       .  A
C1437      H1448   1.084       .  S
C1438      C1439   1.408       .  A
C1439      C1440   1.410       .  A
C1439      H1449   1.084       .  S
C1440      C1441   1.408       .  A
C1441      H1450   1.084       .  S
C1442      C1443   1.409       .  A
C1442      H1451   1.082       .  S
C1443      C1444   1.410       .  A
C1444      H1452   1.083       .  S
C1453      C1454   1.400       .  A
C1453      C1458   1.404       .  A
C1453      H1469   1.083       .  S
C1454      C1455   1.404       .  A
C1454      H1470   1.084       .  S
C1455      C1465   1.405       .  A
C1455      C1456   1.411       .  A
C1456      C1462   1.411       .  A
C1456      C1457   1.413       .  A
C1457      C1459   1.411       .  A
C1457      C1458   1.411       .  A
C1458      C1466   1.405       .  A
C1459      C1468   1.403       .  A
C1459      C1460   1.403       .  A
C1460      C1461   1.399       .  A
C1460      H1471   1.084       .  S
C1461      C1462   1.403       .  A
C1461      H1472   1.083       .  S
C1462      C1463   1.403       .  A
C1463      C1464   1.408       .  A
C1463      H1473   1.084       .  S
C1464      C1465   1.409       .  A
C1465      H1474   1.084       .  S
C1466      C1467   1.409       .  A
C1466      H1475   1.083       .  S
C1467      C1468   1.407       .  A
C1468      H1476   1.083       .  S
C1477      C1478   1.400       .  A
C1477      C1482   1.404       .  A
C1477      H1493   1.083       .  S
C1478      C1479   1.404       .  A
C1478      H1494   1.084       .  S
C1479      C1489   1.405       .  A
C1479      C1480   1.411       .  A
C1480      C1486   1.411       .  A
C1480      C1481   1.413       .  A
C1481      C1483   1.411       .  A
C1481      C1482   1.411       .  A
C1482      C1490   1.405       .  A
C1483      C1492   1.403       .  A
C1483      C1484   1.403       .  A
C1484      C1485   1.399       .  A
C1484      H1495   1.084       .  S
C1485      C1486   1.404       .  A
C1485      H1496   1.083       .  S
C1486      C1487   1.403       .  A
C1487      C1488   1.408       .  A
C1487      H1497   1.083       .  S
C1488      C1489   1.409       .  A
C1489      H1498   1.083       .  S
C1490      C1491   1.409       .  A
C1490      H1499   1.084       .  S
C1491      C1492   1.408       .  A
C1492      H1500   1.084       .  S
C1501      C1502   1.398       .  A
C1501      C1506   1.403       .  A
C1501      H1517   1.084       .  S
C1502      C1503   1.404       .  A
C1502      H1518   1.084       .  S
C1503      C1513   1.401       .  A
C1503      C1504   1.410       .  A
C1504      C1510   1.412       .  A
C1504      C1505   1.412       .  A
C1505      C1507   1.410       .  A
C1505      C1506   1.412       .  A
C1506      C1514   1.403       .  A
C1507      C1516   1.403       .  A
C1507      C1508   1.404       .  A
C1508      C1509   1.400       .  A
C1508      H1519   1.084       .  S
C1509      C1510   1.404       .  A
C1509      H1520   1.083       .  S
C1510      C1511   1.405       .  A
C1511      C1512   1.407       .  A
C1511      H1521   1.083       .  S
C1512      C1513   1.408       .  A
C1513      H1522   1.082       .  S
C1514      C1515   1.407       .  A
C1514      H1523   1.084       .  S
C1515      C1516   1.409       .  A
C1516      H1524   1.084       .  S
C1525      C1526   1.399       .  A
C1525      C1530   1.404       .  A
C1525      H1541   1.083       .  S
C1526      C1527   1.403       .  A
C1526      H1542   1.084       .  S
C1527      C1537   1.405       .  A
C1527      C1528   1.412       .  A
C1528      C1534   1.411       .  A
C1528      C1529   1.415       .  A
C1529      C1531   1.411       .  A
C1529      C1530   1.410       .  A
C1530      C1538   1.404       .  A
C1531      C1540   1.407       .  A
C1531      C1532   1.404       .  A
C1532      C1533   1.400       .  A
C1532      H1543   1.083       .  S
C1533      C1534   1.404       .  A
C1533      H1544   1.084       .  S
C1534      C1535   1.405       .  A
C1535      C1536   1.409       .  A
C1535      H1545   1.084       .  S
C1536      C1537   1.408       .  A
C1537      H1546   1.084       .  S
C1538      C1539   1.411       .  A
C1538      H1547   1.081       .  S
C1539      C1540   1.410       .  A
C1540      H1548   1.082       .  S
C1549      C1550   1.400       .  A
C1549      C1554   1.404       .  A
C1549      H1565   1.084       .  S
C1550      C1551   1.404       .  A
C1550      H1566   1.084       .  S
C1551      C1561   1.405       .  A
C1551      C1552   1.411       .  A
C1552      C1558   1.411       .  A
C1552      C1553   1.413       .  A
C1553      C1555   1.411       .  A
C1553      C1554   1.411       .  A
C1554      C1562   1.404       .  A
C1555      C1564   1.403       .  A
C1555      C1556   1.403       .  A
C1556      C1557   1.399       .  A
C1556      H1567   1.084       .  S
C1557      C1558   1.404       .  A
C1557      H1568   1.084       .  S
C1558      C1559   1.403       .  A
C1559      C1560   1.408       .  A
C1559      H1569   1.084       .  S
C1560      C1561   1.408       .  A
C1561      H1570   1.084       .  S
C1562      C1563   1.408       .  A
C1562      H1571   1.083       .  S
C1563      C1564   1.408       .  A
C1564      H1572   1.083       .  S
C1573      C1574   1.399       .  A
C1573      C1578   1.404       .  A
C1573      H1589   1.084       .  S
C1574      C1575   1.404       .  A
C1574      H1590   1.084       .  S
C1575      C1585   1.404       .  A
C1575      C1576   1.411       .  A
C1576      C1582   1.412       .  A
C1576      C1577   1.414       .  A
C1577      C1579   1.410       .  A
C1577      C1578   1.410       .  A
C1578      C1586   1.405       .  A
C1579      C1588   1.406       .  A
C1579      C1580   1.405       .  A
C1580      C1581   1.400       .  A
C1580      H1591   1.083       .  S
C1581      C1582   1.404       .  A
C1581      H1592   1.084       .  S
C1582      C1583   1.406       .  A
C1583      C1584   1.408       .  A
C1583      H1593   1.084       .  S
C1584      C1585   1.408       .  A
C1585      H1594   1.084       .  S
C1586      C1587   1.410       .  A
C1586      H1595   1.082       .  S
C1587      C1588   1.411       .  A
C1588      H1596   1.082       .  S
C1597      C1598   1.400       .  A
C1597      C1602   1.404       .  A
C1597      H1613   1.084       .  S
C1598      C1599   1.404       .  A
C1598      H1614   1.084       .  S
C1599      C1609   1.405       .  A
C1599      C1600   1.411       .  A
C1600      C1606   1.412       .  A
C1600      C1601   1.414       .  A
C1601      C1603   1.410       .  A
C1601      C1602   1.411       .  A
C1602      C1610   1.406       .  A
C1603      C1612   1.404       .  A
C1603      C1604   1.404       .  A
C1604      C1605   1.399       .  A
C1604      H1615   1.084       .  S
C1605      C1606   1.403       .  A
C1605      H1616   1.084       .  S
C1606      C1607   1.405       .  A
C1607      C1608   1.407       .  A
C1607      H1617   1.084       .  S
C1608      C1609   1.409       .  A
C1609      H1618   1.084       .  S
C1610      C1611   1.410       .  A
C1610      H1619   1.082       .  S
C1611      C1612   1.409       .  A
C1612      H1620   1.082       .  S
C1621      C1622   1.401       .  A
C1621      C1626   1.404       .  A
C1621      H1637   1.084       .  S
C1622      C1623   1.405       .  A
C1622      H1638   1.083       .  S
C1623      C1633   1.405       .  A
C1623      C1624   1.410       .  A
C1624      C1630   1.411       .  A
C1624      C1625   1.412       .  A
C1625      C1627   1.410       .  A
C1625      C1626   1.412       .  A
C1626      C1634   1.407       .  A
C1627      C1636   1.398       .  A
C1627      C1628   1.402       .  A
C1628      C1629   1.396       .  A
C1628      H1639   1.084       .  S
C1629      C1630   1.402       .  A
C1629      H1640   1.084       .  S
C1630      C1631   1.400       .  A
C1631      C1632   1.407       .  A
C1631      H1641   1.083       .  S
C1632      C1633   1.410       .  A
C1633      H1642   1.083       .  S
C1634      C1635   1.409       .  A
C1634      H1643   1.084       .  S
C1635      C1636   1.407       .  A
C1636      H1644   1.084       .  S
C1645      C1646   1.403       .  A
C1645      C1650   1.405       .  A
C1645      H1661   1.083       .  S
C1646      C1647   1.405       .  A
C1646      H1662   1.083       .  S
C1647      C1657   1.410       .  A
C1647      C1648   1.412       .  A
C1648      C1654   1.410       .  A
C1648      C1649   1.415       .  A
C1649      C1651   1.411       .  A
C1649      C1650   1.412       .  A
C1650      C1658   1.410       .  A
C1651      C1660   1.401       .  A
C1651      C1652   1.403       .  A
C1652      C1653   1.397       .  A
C1652      H1663   1.084       .  S
C1653      C1654   1.403       .  A
C1653      H1664   1.084       .  S
C1654      C1655   1.401       .  A
C1655      C1656   1.408       .  A
C1655      H1665   1.083       .  S
C1656      C1657   1.411       .  A
C1657      H1666   1.083       .  S
C1658      C1659   1.411       .  A
C1658      H1667   1.084       .  S
C1659      C1660   1.408       .  A
C1660      H1668   1.084       .  S
C1669      C1670   1.399       .  A
C1669      C1674   1.404       .  A
C1669      H1685   1.084       .  S
C1670      C1671   1.404       .  A
C1670      H1686   1.084       .  S
C1671      C1681   1.402       .  A
C1671      C1672   1.410       .  A
C1672      C1678   1.412       .  A
C1672      C1673   1.410       .  A
C1673      C1675   1.410       .  A
C1673      C1674   1.411       .  A
C1674      C1682   1.403       .  A
C1675      C1684   1.399       .  A
C1675      C1676   1.403       .  A
C1676      C1677   1.397       .  A
C1676      H1687   1.084       .  S
C1677      C1678   1.402       .  A
C1677      H1688   1.084       .  S
C1678      C1679   1.400       .  A
C1679      C1680   1.405       .  A
C1679      H1689   1.084       .  S
C1680      C1681   1.409       .  A
C1681      H1690   1.084       .  S
C1682      C1683   1.409       .  A
C1682      H1691   1.083       .  S
C1683      C1684   1.406       .  A
C1684      H1692   1.083       .  S
C1693      C1694   1.400       .  A
C1693      C1698   1.404       .  A
C1693      H1709   1.084       .  S
C1694      C1695   1.404       .  A
C1694      H1710   1.083       .  S
C1695      C1705   1.405       .  A
C1695      C1696   1.410       .  A
C1696      C1702   1.412       .  A
C1696      C1697   1.415       .  A
C1697      C1699   1.409       .  A
C1697      C1698   1.412       .  A
C1698      C1706   1.407       .  A
C1699      C1708   1.405       .  A
C1699      C1700   1.405       .  A
C1700      C1701   1.400       .  A
C1700      H1711   1.083       .  S
C1701      C1702   1.404       .  A
C1701      H1712   1.084       .  S
C1702      C1703   1.408       .  A
C1703      C1704   1.409       .  A
C1703      H1713   1.084       .  S
C1704      C1705   1.410       .  A
C1705      H1714   1.084       .  S
C1706      C1707   1.409       .  A
C1706      H1715   1.083       .  S
C1707      C1708   1.411       .  A
C1708      H1716   1.082       .  S
C1717      C1718   1.399       .  A
C1717      C1722   1.403       .  A
C1717      H1733   1.084       .  S
C1718      C1719   1.404       .  A
C1718      H1734   1.083       .  S
C1719      C1729   1.403       .  A
C1719      C1720   1.409       .  A
C1720      C1726   1.412       .  A
C1720      C1721   1.415       .  A
C1721      C1723   1.410       .  A
C1721      C1722   1.412       .  A
C1722      C1730   1.406       .  A
C1723      C1732   1.405       .  A
C1723      C1724   1.405       .  A
C1724      C1725   1.401       .  A
C1724      H1735   1.083       .  S
C1725      C1726   1.404       .  A
C1725      H1736   1.084       .  S
C1726      C1727   1.408       .  A
C1727      C1728   1.409       .  A
C1727      H1737   1.083       .  S
C1728      C1729   1.410       .  A
C1729      H1738   1.082       .  S
C1730      C1731   1.408       .  A
C1730      H1739   1.084       .  S
C1731      C1732   1.411       .  A
C1732      H1740   1.084       .  S
C1741      C1742   1.397       .  A
C1741      C1746   1.402       .  A
C1741      H1757   1.084       .  S
C1742      C1743   1.403       .  A
C1742      H1758   1.084       .  S
C1743      C1753   1.401       .  A
C1743      C1744   1.410       .  A
C1744      C1750   1.410       .  A
C1744      C1745   1.410       .  A
C1745      C1747   1.411       .  A
C1745      C1746   1.411       .  A
C1746      C1754   1.400       .  A
C1747      C1756   1.402       .  A
C1747      C1748   1.403       .  A
C1748      C1749   1.399       .  A
C1748      H1759   1.084       .  S
C1749      C1750   1.404       .  A
C1749      H1760   1.084       .  S
C1750      C1751   1.402       .  A
C1751      C1752   1.409       .  A
C1751      H1761   1.082       .  S
C1752      C1753   1.408       .  A
C1753      H1762   1.082       .  S
C1754      C1755   1.405       .  A
C1754      H1763   1.084       .  S
C1755      C1756   1.407       .  A
C1756      H1764   1.084       .  S
C1765      C1766   1.399       .  A
C1765      C1770   1.404       .  A
C1765      H1781   1.084       .  S
C1766      C1767   1.403       .  A
C1766      H1782   1.083       .  S
C1767      C1777   1.404       .  A
C1767      C1768   1.412       .  A
C1768      C1774   1.410       .  A
C1768      C1769   1.412       .  A
C1769      C1771   1.412       .  A
C1769      C1770   1.410       .  A
C1770      C1778   1.402       .  A
C1771      C1780   1.403       .  A
C1771      C1772   1.403       .  A
C1772      C1773   1.398       .  A
C1772      H1783   1.083       .  S
C1773      C1774   1.403       .  A
C1773      H1784   1.084       .  S
C1774      C1775   1.401       .  A
C1775      C1776   1.407       .  A
C1775      H1785   1.084       .  S
C1776      C1777   1.407       .  A
C1777      H1786   1.084       .  S
C1778      C1779   1.407       .  A
C1778      H1787   1.084       .  S
C1779      C1780   1.406       .  A
C1780      H1788   1.084       .  S
C1789      C1790   1.400       .  A
C1789      C1794   1.404       .  A
C1789      H1805   1.083       .  S
C1790      C1791   1.404       .  A
C1790      H1806   1.084       .  S
C1791      C1801   1.406       .  A
C1791      C1792   1.412       .  A
C1792      C1798   1.411       .  A
C1792      C1793   1.412       .  A
C1793      C1795   1.410       .  A
C1793      C1794   1.411       .  A
C1794      C1802   1.405       .  A
C1795      C1804   1.400       .  A
C1795      C1796   1.403       .  A
C1796      C1797   1.397       .  A
C1796      H1807   1.084       .  S
C1797      C1798   1.403       .  A
C1797      H1808   1.084       .  S
C1798      C1799   1.400       .  A
C1799      C1800   1.406       .  A
C1799      H1809   1.084       .  S
C1800      C1801   1.408       .  A
C1801      H1810   1.084       .  S
C1802      C1803   1.409       .  A
C1802      H1811   1.082       .  S
C1803      C1804   1.407       .  A
C1804      H1812   1.082       .  S
C1813      C1814   1.399       .  A
C1813      C1818   1.403       .  A
C1813      H1829   1.083       .  S
C1814      C1815   1.403       .  A
C1814      H1830   1.084       .  S
C1815      C1825   1.403       .  A
C1815      C1816   1.411       .  A
C1816      C1822   1.411       .  A
C1816      C1817   1.411       .  A
C1817      C1819   1.411       .  A
C1817      C1818   1.411       .  A
C1818      C1826   1.402       .  A
C1819      C1828   1.401       .  A
C1819      C1820   1.403       .  A
C1820      C1821   1.398       .  A
C1820      H1831   1.084       .  S
C1821      C1822   1.403       .  A
C1821      H1832   1.084       .  S
C1822      C1823   1.401       .  A
C1823      C1824   1.408       .  A
C1823      H1833   1.084       .  S
C1824      C1825   1.407       .  A
C1825      H1834   1.084       .  S
C1826      C1827   1.406       .  A
C1826      H1835   1.083       .  S
C1827      C1828   1.407       .  A
C1828      H1836   1.083       .  S
C1837      C1838   1.399       .  A
C1837      C1842   1.403       .  A
C1837      H1853   1.084       .  S
C1838      C1839   1.404       .  A
C1838      H1854   1.084       .  S
C1839      C1849   1.403       .  A
C1839      C1840   1.410       .  A
C1840      C1846   1.410       .  A
C1840      C1841   1.412       .  A
C1841      C1843   1.411       .  A
C1841      C1842   1.411       .  A
C1842      C1850   1.403       .  A
C1843      C1852   1.403       .  A
C1843      C1844   1.404       .  A
C1844      C1845   1.399       .  A
C1844      H1855   1.084       .  S
C1845      C1846   1.404       .  A
C1845      H1856   1.083       .  S
C1846      C1847   1.404       .  A
C1847      C1848   1.409       .  A
C1847      H1857   1.082       .  S
C1848      C1849   1.410       .  A
C1849      H1858   1.082       .  S
C1850      C1851   1.408       .  A
C1850      H1859   1.084       .  S
C1851      C1852   1.408       .  A
C1852      H1860   1.084       .  S
C1861      C1862   1.399       .  A
C1861      C1866   1.403       .  A
C1861      H1877   1.084       .  S
C1862      C1863   1.404       .  A
C1862      H1878   1.084       .  S
C1863      C1873   1.403       .  A
C1863      C1864   1.410       .  A
C1864      C1870   1.411       .  A
C1864      C1865   1.413       .  A
C1865      C1867   1.411       .  A
C1865      C1866   1.411       .  A
C1866      C1874   1.403       .  A
C1867      C1876   1.404       .  A
C1867      C1868   1.404       .  A
C1868      C1869   1.400       .  A
C1868      H1879   1.084       .  S
C1869      C1870   1.404       .  A
C1869      H1880   1.083       .  S
C1870      C1871   1.405       .  A
C1871      C1872   1.410       .  A
C1871      H1881   1.082       .  S
C1872      C1873   1.408       .  A
C1873      H1882   1.082       .  S
C1874      C1875   1.408       .  A
C1874      H1883   1.084       .  S
C1875      C1876   1.409       .  A
C1876      H1884   1.084       .  S
C1885      C1886   1.398       .  A
C1885      C1890   1.404       .  A
C1885      H1901   1.084       .  S
C1886      C1887   1.403       .  A
C1886      H1902   1.084       .  S
C1887      C1897   1.403       .  A
C1887      C1888   1.411       .  A
C1888      C1894   1.411       .  A
C1888      C1889   1.414       .  A
C1889      C1891   1.411       .  A
C1889      C1890   1.410       .  A
C1890      C1898   1.403       .  A
C1891      C1900   1.407       .  A
C1891      C1892   1.405       .  A
C1892      C1893   1.401       .  A
C1892      H1903   1.083       .  S
C1893      C1894   1.404       .  A
C1893      H1904   1.083       .  S
C1894      C1895   1.406       .  A
C1895      C1896   1.410       .  A
C1895      H1905   1.084       .  S
C1896      C1897   1.408       .  A
C1897      H1906   1.084       .  S
C1898      C1899   1.408       .  A
C1898      H1907   1.083       .  S
C1899      C1900   1.410       .  A
C1900      H1908   1.083       .  S
C1909      C1910   1.401       .  A
C1909      C1914   1.404       .  A
C1909      H1925   1.083       .  S
C1910      C1911   1.404       .  A
C1910      H1926   1.084       .  S
C1911      C1921   1.406       .  A
C1911      C1912   1.411       .  A
C1912      C1918   1.411       .  A
C1912      C1913   1.414       .  A
C1913      C1915   1.410       .  A
C1913      C1914   1.411       .  A
C1914      C1922   1.407       .  A
C1915      C1924   1.403       .  A
C1915      C1916   1.404       .  A
C1916      C1917   1.399       .  A
C1916      H1927   1.084       .  S
C1917      C1918   1.404       .  A
C1917      H1928   1.083       .  S
C1918      C1919   1.404       .  A
C1919      C1920   1.409       .  A
C1919      H1929   1.084       .  S
C1920      C1921   1.409       .  A
C1921      H1930   1.084       .  S
C1922      C1923   1.410       .  A
C1922      H1931   1.082       .  S
C1923      C1924   1.410       .  A
C1924      H1932   1.082       .  S
C1933      C1934   1.399       .  A
C1933      C1938   1.404       .  A
C1933      H1949   1.084       .  S
C1934      C1935   1.404       .  A
C1934      H1950   1.084       .  S
C1935      C1945   1.404       .  A
C1935      C1936   1.411       .  A
C1936      C1942   1.411       .  A
C1936      C1937   1.413       .  A
C1937      C1939   1.411       .  A
C1937      C1938   1.411       .  A
C1938      C1946   1.403       .  A
C1939      C1948   1.405       .  A
C1939      C1940   1.404       .  A
C1940      C1941   1.400       .  A
C1940      H1951   1.083       .  S
C1941      C1942   1.404       .  A
C1941      H1952   1.084       .  S
C1942      C1943   1.404       .  A
C1943      C1944   1.409       .  A
C1943      H1953   1.084       .  S
C1944      C1945   1.408       .  A
C1945      H1954   1.084       .  S
C1946      C1947   1.408       .  A
C1946      H1955   1.083       .  S
C1947      C1948   1.409       .  A
C1948      H1956   1.083       .  S
C1957      C1958   1.399       .  A
C1957      C1962   1.404       .  A
C1957      H1973   1.084       .  S
C1958      C1959   1.404       .  A
C1958      H1974   1.083       .  S
C1959      C1969   1.405       .  A
C1959      C1960   1.411       .  A
C1960      C1966   1.411       .  A
C1960      C1961   1.415       .  A
C1961      C1963   1.411       .  A
C1961      C1962   1.411       .  A
C1962      C1970   1.404       .  A
C1963      C1972   1.407       .  A
C1963      C1964   1.404       .  A
C1964      C1965   1.401       .  A
C1964      H1975   1.083       .  S
C1965      C1966   1.404       .  A
C1965      H1976   1.084       .  S
C1966      C1967   1.407       .  A
C1967      C1968   1.410       .  A
C1967      H1977   1.083       .  S
C1968      C1969   1.409       .  A
C1969      H1978   1.083       .  S
C1970      C1971   1.409       .  A
C1970      H1979   1.084       .  S
C1971      C1972   1.409       .  A
C1972      H1980   1.084       .  S
C1981      C1982   1.398       .  A
C1981      C1986   1.404       .  A
C1981      H1997   1.083       .  S
C1982      C1983   1.403       .  A
C1982      H1998   1.084       .  S
C1983      C1993   1.402       .  A
C1983      C1984   1.411       .  A
C1984      C1990   1.411       .  A
C1984      C1985   1.411       .  A
C1985      C1987   1.410       .  A
C1985      C1986   1.410       .  A
C1986      C1994   1.403       .  A
C1987      C1996   1.402       .  A
C1987      C1988   1.404       .  A
C1988      C1989   1.399       .  A
C1988      H1999   1.084       .  S
C1989      C1990   1.403       .  A
C1989      H2000   1.084       .  S
C1990      C1991   1.402       .  A
C1991      C1992   1.407       .  A
C1991      H2001   1.084       .  S
C1992      C1993   1.406       .  A
C1993      H2002   1.084       .  S
C1994      C1995   1.409       .  A
C1994      H2003   1.082       .  S
C1995      C1996   1.410       .  A
C1996      H2004   1.082       .  S
C2005      C2006   1.399       .  A
C2005      C2010   1.404       .  A
C2005      H2021   1.083       .  S
C2006      C2007   1.404       .  A
C2006      H2022   1.084       .  S
C2007      C2017   1.403       .  A
C2007      C2008   1.410       .  A
C2008      C2014   1.412       .  A
C2008      C2009   1.415       .  A
C2009      C2011   1.410       .  A
C2009      C2010   1.411       .  A
C2010      C2018   1.405       .  A
C2011      C2020   1.406       .  A
C2011      C2012   1.405       .  A
C2012      C2013   1.401       .  A
C2012      H2023   1.083       .  S
C2013      C2014   1.404       .  A
C2013      H2024   1.084       .  S
C2014      C2015   1.408       .  A
C2015      C2016   1.409       .  A
C2015      H2025   1.084       .  S
C2016      C2017   1.409       .  A
C2017      H2026   1.084       .  S
C2018      C2019   1.408       .  A
C2018      H2027   1.083       .  S
C2019      C2020   1.410       .  A
C2020      H2028   1.083       .  S
C2029      C2030   1.398       .  A
C2029      C2034   1.403       .  A
C2029      H2045   1.084       .  S
C2030      C2031   1.404       .  A
C2030      H2046   1.083       .  S
C2031      C2041   1.401       .  A
C2031      C2032   1.410       .  A
C2032      C2038   1.410       .  A
C2032      C2033   1.410       .  A
C2033      C2035   1.410       .  A
C2033      C2034   1.412       .  A
C2034      C2042   1.402       .  A
C2035      C2044   1.401       .  A
C2035      C2036   1.403       .  A
C2036      C2037   1.398       .  A
C2036      H2047   1.083       .  S
C2037      C2038   1.403       .  A
C2037      H2048   1.084       .  S
C2038      C2039   1.401       .  A
C2039      C2040   1.408       .  A
C2039      H2049   1.082       .  S
C2040      C2041   1.409       .  A
C2041      H2050   1.081       .  S
C2042      C2043   1.406       .  A
C2042      H2051   1.084       .  S
C2043      C2044   1.407       .  A
C2044      H2052   1.084       .  S
C2053      C2054   1.400       .  A
C2053      C2058   1.404       .  A
C2053      H2069   1.084       .  S
C2054      C2055   1.405       .  A
C2054      H2070   1.083       .  S
C2055      C2065   1.405       .  A
C2055      C2056   1.411       .  A
C2056      C2062   1.411       .  A
C2056      C2057   1.414       .  A
C2057      C2059   1.411       .  A
C2057      C2058   1.411       .  A
C2058      C2066   1.405       .  A
C2059      C2068   1.404       .  A
C2059      C2060   1.403       .  A
C2060      C2061   1.399       .  A
C2060      H2071   1.083       .  S
C2061      C2062   1.403       .  A
C2061      H2072   1.084       .  S
C2062      C2063   1.404       .  A
C2063      C2064   1.408       .  A
C2063      H2073   1.082       .  S
C2064      C2065   1.411       .  A
C2065      H2074   1.082       .  S
C2066      C2067   1.410       .  A
C2066      H2075   1.084       .  S
C2067      C2068   1.407       .  A
C2068      H2076   1.084       .  S
C2077      C2078   1.399       .  A
C2077      C2082   1.404       .  A
C2077      H2093   1.084       .  S
C2078      C2079   1.403       .  A
C2078      H2094   1.084       .  S
C2079      C2089   1.404       .  A
C2079      C2080   1.412       .  A
C2080      C2086   1.411       .  A
C2080      C2081   1.412       .  A
C2081      C2083   1.412       .  A
C2081      C2082   1.410       .  A
C2082      C2090   1.403       .  A
C2083      C2092   1.404       .  A
C2083      C2084   1.403       .  A
C2084      C2085   1.399       .  A
C2084      H2095   1.084       .  S
C2085      C2086   1.403       .  A
C2085      H2096   1.084       .  S
C2086      C2087   1.402       .  A
C2087      C2088   1.405       .  A
C2087      H2097   1.084       .  S
C2088      C2089   1.406       .  A
C2089      H2098   1.084       .  S
C2090      C2091   1.409       .  A
C2090      H2099   1.084       .  S
C2091      C2092   1.407       .  A
C2092      H2100   1.084       .  S
C2101      C2102   1.400       .  A
C2101      C2106   1.405       .  A
C2101      H2117   1.084       .  S
C2102      C2103   1.404       .  A
C2102      H2118   1.084       .  S
C2103      C2113   1.407       .  A
C2103      C2104   1.412       .  A
C2104      C2110   1.410       .  A
C2104      C2105   1.415       .  A
C2105      C2107   1.411       .  A
C2105      C2106   1.410       .  A
C2106      C2114   1.405       .  A
C2107      C2116   1.406       .  A
C2107      C2108   1.404       .  A
C2108      C2109   1.400       .  A
C2108      H2119   1.084       .  S
C2109      C2110   1.404       .  A
C2109      H2120   1.084       .  S
C2110      C2111   1.404       .  A
C2111      C2112   1.409       .  A
C2111      H2121   1.084       .  S
C2112      C2113   1.409       .  A
C2113      H2122   1.084       .  S
C2114      C2115   1.411       .  A
C2114      H2123   1.082       .  S
C2115      C2116   1.409       .  A
C2116      H2124   1.082       .  S
C2125      C2126   1.398       .  A
C2125      C2130   1.403       .  A
C2125      H2141   1.084       .  S
C2126      C2127   1.403       .  A
C2126      H2142   1.084       .  S
C2127      C2137   1.401       .  A
C2127      C2128   1.410       .  A
C2128      C2134   1.412       .  A
C2128      C2129   1.413       .  A
C2129      C2131   1.410       .  A
C2129      C2130   1.411       .  A
C2130      C2138   1.403       .  A
C2131      C2140   1.405       .  A
C2131      C2132   1.404       .  A
C2132      C2133   1.400       .  A
C2132      H2143   1.083       .  S
C2133      C2134   1.404       .  A
C2133      H2144   1.084       .  S
C2134      C2135   1.406       .  A
C2135      C2136   1.408       .  A
C2135      H2145   1.084       .  S
C2136      C2137   1.408       .  A
C2137      H2146   1.084       .  S
C2138      C2139   1.408       .  A
C2138      H2147   1.082       .  S
C2139      C2140   1.410       .  A
C2140      H2148   1.082       .  S
C2149      C2150   1.399       .  A
C2149      C2154   1.403       .  A
C2149      H2165   1.084       .  S
C2150      C2151   1.404       .  A
C2150      H2166   1.083       .  S
C2151      C2161   1.404       .  A
C2151      C2152   1.410       .  A
C2152      C2158   1.411       .  A
C2152      C2153   1.415       .  A
C2153      C2155   1.412       .  A
C2153      C2154   1.412       .  A
C2154      C2162   1.404       .  A
C2155      C2164   1.407       .  A
C2155      C2156   1.404       .  A
C2156      C2157   1.401       .  A
C2156      H2167   1.083       .  S
C2157      C2158   1.405       .  A
C2157      H2168   1.084       .  S
C2158      C2159   1.407       .  A
C2159      C2160   1.410       .  A
C2159      H2169   1.083       .  S
C2160      C2161   1.409       .  A
C2161      H2170   1.083       .  S
C2162      C2163   1.406       .  A
C2162      H2171   1.084       .  S
C2163      C2164   1.408       .  A
C2164      H2172   1.084       .  S
C2173      C2174   1.400       .  A
C2173      C2178   1.404       .  A
C2173      H2189   1.083       .  S
C2174      C2175   1.404       .  A
C2174      H2190   1.084       .  S
C2175      C2185   1.404       .  A
C2175      C2176   1.411       .  A
C2176      C2182   1.411       .  A
C2176      C2177   1.411       .  A
C2177      C2179   1.409       .  A
C2177      C2178   1.411       .  A
C2178      C2186   1.405       .  A
C2179      C2188   1.400       .  A
C2179      C2180   1.403       .  A
C2180      C2181   1.397       .  A
C2180      H2191   1.084       .  S
C2181      C2182   1.403       .  A
C2181      H2192   1.084       .  S
C2182      C2183   1.401       .  A
C2183      C2184   1.406       .  A
C2183      H2193   1.084       .  S
C2184      C2185   1.408       .  A
C2185      H2194   1.084       .  S
C2186      C2187   1.409       .  A
C2186      H2195   1.082       .  S
C2187      C2188   1.409       .  A
C2188      H2196   1.081       .  S
C2197      C2198   1.398       .  A
C2197      C2202   1.403       .  A
C2197      H2213   1.084       .  S
C2198      C2199   1.403       .  A
C2198      H2214   1.084       .  S
C2199      C2209   1.401       .  A
C2199      C2200   1.410       .  A
C2200      C2206   1.412       .  A
C2200      C2201   1.413       .  A
C2201      C2203   1.411       .  A
C2201      C2202   1.411       .  A
C2202      C2210   1.402       .  A
C2203      C2212   1.405       .  A
C2203      C2204   1.404       .  A
C2204      C2205   1.400       .  A
C2204      H2215   1.083       .  S
C2205      C2206   1.404       .  A
C2205      H2216   1.084       .  S
C2206      C2207   1.406       .  A
C2207      C2208   1.408       .  A
C2207      H2217   1.084       .  S
C2208      C2209   1.408       .  A
C2209      H2218   1.084       .  S
C2210      C2211   1.407       .  A
C2210      H2219   1.083       .  S
C2211      C2212   1.409       .  A
C2212      H2220   1.083       .  S
C2221      C2222   1.398       .  A
C2221      C2226   1.403       .  A
C2221      H2237   1.084       .  S
C2222      C2223   1.403       .  A
C2222      H2238   1.084       .  S
C2223      C2233   1.401       .  A
C2223      C2224   1.411       .  A
C2224      C2230   1.411       .  A
C2224      C2225   1.412       .  A
C2225      C2227   1.410       .  A
C2225      C2226   1.410       .  A
C2226      C2234   1.401       .  A
C2227      C2236   1.404       .  A
C2227      C2228   1.404       .  A
C2228      C2229   1.400       .  A
C2228      H2239   1.083       .  S
C2229      C2230   1.404       .  A
C2229      H2240   1.084       .  S
C2230      C2231   1.404       .  A
C2231      C2232   1.408       .  A
C2231      H2241   1.084       .  S
C2232      C2233   1.408       .  A
C2233      H2242   1.084       .  S
C2234      C2235   1.408       .  A
C2234      H2243   1.082       .  S
C2235      C2236   1.410       .  A
C2236      H2244   1.082       .  S
C2245      C2246   1.398       .  A
C2245      C2250   1.403       .  A
C2245      H2261   1.084       .  S
C2246      C2247   1.404       .  A
C2246      H2262   1.083       .  S
C2247      C2257   1.400       .  A
C2247      C2248   1.410       .  A
C2248      C2254   1.412       .  A
C2248      C2249   1.411       .  A
C2249      C2251   1.411       .  A
C2249      C2250   1.412       .  A
C2250      C2258   1.402       .  A
C2251      C2260   1.402       .  A
C2251      C2252   1.403       .  A
C2252      C2253   1.399       .  A
C2252      H2263   1.083       .  S
C2253      C2254   1.403       .  A
C2253      H2264   1.084       .  S
C2254      C2255   1.403       .  A
C2255      C2256   1.406       .  A
C2255      H2265   1.083       .  S
C2256      C2257   1.408       .  A
C2257      H2266   1.083       .  S
C2258      C2259   1.407       .  A
C2258      H2267   1.084       .  S
C2259      C2260   1.407       .  A
C2260      H2268   1.084       .  S
C2269      C2270   1.398       .  A
C2269      C2274   1.403       .  A
C2269      H2285   1.084       .  S
C2270      C2271   1.403       .  A
C2270      H2286   1.084       .  S
C2271      C2281   1.402       .  A
C2271      C2272   1.410       .  A
C2272      C2278   1.411       .  A
C2272      C2273   1.412       .  A
C2273      C2275   1.411       .  A
C2273      C2274   1.411       .  A
C2274      C2282   1.402       .  A
C2275      C2284   1.404       .  A
C2275      C2276   1.404       .  A
C2276      C2277   1.400       .  A
C2276      H2287   1.084       .  S
C2277      C2278   1.404       .  A
C2277      H2288   1.083       .  S
C2278      C2279   1.405       .  A
C2279      C2280   1.408       .  A
C2279      H2289   1.083       .  S
C2280      C2281   1.408       .  A
C2281      H2290   1.083       .  S
C2282      C2283   1.407       .  A
C2282      H2291   1.084       .  S
C2283      C2284   1.408       .  A
C2284      H2292   1.084       .  S
C2293      C2294   1.398       .  A
C2293      C2298   1.403       .  A
C2293      H2309   1.084       .  S
C2294      C2295   1.403       .  A
C2294      H2310   1.084       .  S
C2295      C2305   1.401       .  A
C2295      C2296   1.410       .  A
C2296      C2302   1.410       .  A
C2296      C2297   1.410       .  A
C2297      C2299   1.411       .  A
C2297      C2298   1.411       .  A
C2298      C2306   1.401       .  A
C2299      C2308   1.401       .  A
C2299      C2300   1.403       .  A
C2300      C2301   1.398       .  A
C2300      H2311   1.084       .  S
C2301      C2302   1.404       .  A
C2301      H2312   1.083       .  S
C2302      C2303   1.401       .  A
C2303      C2304   1.409       .  A
C2303      H2313   1.082       .  S
C2304      C2305   1.408       .  A
C2305      H2314   1.082       .  S
C2306      C2307   1.407       .  A
C2306      H2315   1.084       .  S
C2307      C2308   1.407       .  A
C2308      H2316   1.084       .  S
C2317      C2318   1.397       .  A
C2317      C2322   1.403       .  A
C2317      H2333   1.084       .  S
C2318      C2319   1.403       .  A
C2318      H2334   1.084       .  S
C2319      C2329   1.401       .  A
C2319      C2320   1.410       .  A
C2320      C2326   1.411       .  A
C2320      C2321   1.412       .  A
C2321      C2323   1.411       .  A
C2321      C2322   1.411       .  A
C2322      C2330   1.401       .  A
C2323      C2332   1.404       .  A
C2323      C2324   1.404       .  A
C2324      C2325   1.400       .  A
C2324      H2335   1.084       .  S
C2325      C2326   1.404       .  A
C2325      H2336   1.083       .  S
C2326      C2327   1.405       .  A
C2327      C2328   1.410       .  A
C2327      H2337   1.082       .  S
C2328      C2329   1.409       .  A
C2329      H2338   1.081       .  S
C2330      C2331   1.406       .  A
C2330      H2339   1.084       .  S
C2331      C2332   1.409       .  A
C2332      H2340   1.084       .  S
C2341      C2342   1.398       .  A
C2341      C2346   1.403       .  A
C2341      H2357   1.084       .  S
C2342      C2343   1.403       .  A
C2342      H2358   1.083       .  S
C2343      C2353   1.403       .  A
C2343      C2344   1.411       .  A
C2344      C2350   1.410       .  A
C2344      C2345   1.412       .  A
C2345      C2347   1.412       .  A
C2345      C2346   1.410       .  A
C2346      C2354   1.400       .  A
C2347      C2356   1.405       .  A
C2347      C2348   1.404       .  A
C2348      C2349   1.400       .  A
C2348      H2359   1.084       .  S
C2349      C2350   1.404       .  A
C2349      H2360   1.084       .  S
C2350      C2351   1.404       .  A
C2351      C2352   1.410       .  A
C2351      H2361   1.082       .  S
C2352      C2353   1.407       .  A
C2353      H2362   1.083       .  S
C2354      C2355   1.407       .  A
C2354      H2363   1.084       .  S
C2355      C2356   1.408       .  A
C2356      H2364   1.084       .  S
C2365      C2366   1.397       .  A
C2365      C2370   1.403       .  A
C2365      H2381   1.084       .  S
C2366      C2367   1.403       .  A
C2366      H2382   1.083       .  S
C2367      C2377   1.400       .  A
C2367      C2368   1.410       .  A
C2368      C2374   1.412       .  A
C2368      C2369   1.413       .  A
C2369      C2371   1.410       .  A
C2369      C2370   1.410       .  A
C2370      C2378   1.400       .  A
C2371      C2380   1.408       .  A
C2371      C2372   1.405       .  A
C2372      C2373   1.402       .  A
C2372      H2383   1.083       .  S
C2373      C2374   1.405       .  A
C2373      H2384   1.084       .  S
C2374      C2375   1.409       .  A
C2375      C2376   1.409       .  A
C2375      H2385   1.084       .  S
C2376      C2377   1.407       .  A
C2377      H2386   1.084       .  S
C2378      C2379   1.408       .  A
C2378      H2387   1.082       .  S
C2379      C2380   1.412       .  A
C2380      H2388   1.082       .  S
C2389      C2390   1.395       .  A
C2389      C2394   1.402       .  A
C2389      H2405   1.083       .  S
C2390      C2391   1.402       .  A
C2390      H2406   1.084       .  S
C2391      C2401   1.398       .  A
C2391      C2392   1.411       .  A
C2392      C2398   1.411       .  A
C2392      C2393   1.411       .  A
C2393      C2395   1.412       .  A
C2393      C2394   1.410       .  A
C2394      C2402   1.397       .  A
C2395      C2404   1.406       .  A
C2395      C2396   1.405       .  A
C2396      C2397   1.401       .  A
C2396      H2407   1.083       .  S
C2397      C2398   1.405       .  A
C2397      H2408   1.084       .  S
C2398      C2399   1.405       .  A
C2399      C2400   1.409       .  A
C2399      H2409   1.084       .  S
C2400      C2401   1.405       .  A
C2401      H2410   1.084       .  S
C2402      C2403   1.405       .  A
C2402      H2411   1.083       .  S
C2403      C2404   1.408       .  A
C2404      H2412   1.084       .  S
C2413      C2414   1.400       .  A
C2413      C2418   1.404       .  A
C2413      H2429   1.083       .  S
C2414      C2415   1.404       .  A
C2414      H2430   1.084       .  S
C2415      C2425   1.406       .  A
C2415      C2416   1.412       .  A
C2416      C2422   1.411       .  A
C2416      C2417   1.414       .  A
C2417      C2419   1.412       .  A
C2417      C2418   1.411       .  A
C2418      C2426   1.405       .  A
C2419      C2428   1.406       .  A
C2419      C2420   1.404       .  A
C2420      C2421   1.400       .  A
C2420      H2431   1.084       .  S
C2421      C2422   1.404       .  A
C2421      H2432   1.084       .  S
C2422      C2423   1.405       .  A
C2423      C2424   1.410       .  A
C2423      H2433   1.084       .  S
C2424      C2425   1.407       .  A
C2425      H2434   1.084       .  S
C2426      C2427   1.406       .  A
C2426      H2435   1.084       .  S
C2427      C2428   1.407       .  A
C2428      H2436   1.084       .  S
C2437      C2438   1.398       .  A
C2437      C2442   1.403       .  A
C2437      H2453   1.084       .  S
C2438      C2439   1.403       .  A
C2438      H2454   1.084       .  S
C2439      C2449   1.400       .  A
C2439      C2440   1.410       .  A
C2440      C2446   1.412       .  A
C2440      C2441   1.410       .  A
C2441      C2443   1.411       .  A
C2441      C2442   1.411       .  A
C2442      C2450   1.401       .  A
C2443      C2452   1.401       .  A
C2443      C2444   1.403       .  A
C2444      C2445   1.398       .  A
C2444      H2455   1.083       .  S
C2445      C2446   1.403       .  A
C2445      H2456   1.084       .  S
C2446      C2447   1.402       .  A
C2447      C2448   1.405       .  A
C2447      H2457   1.084       .  S
C2448      C2449   1.407       .  A
C2449      H2458   1.083       .  S
C2450      C2451   1.407       .  A
C2450      H2459   1.084       .  S
C2451      C2452   1.407       .  A
C2452      H2460   1.084       .  S
C2461      C2462   1.398       .  A
C2461      C2466   1.403       .  A
C2461      H2477   1.084       .  S
C2462      C2463   1.403       .  A
C2462      H2478   1.084       .  S
C2463      C2473   1.402       .  A
C2463      C2464   1.410       .  A
C2464      C2470   1.412       .  A
C2464      C2465   1.413       .  A
C2465      C2467   1.411       .  A
C2465      C2466   1.411       .  A
C2466      C2474   1.402       .  A
C2467      C2476   1.406       .  A
C2467      C2468   1.404       .  A
C2468      C2469   1.401       .  A
C2468      H2479   1.083       .  S
C2469      C2470   1.404       .  A
C2469      H2480   1.083       .  S
C2470      C2471   1.407       .  A
C2471      C2472   1.409       .  A
C2471      H2481   1.084       .  S
C2472      C2473   1.408       .  A
C2473      H2482   1.084       .  S
C2474      C2475   1.408       .  A
C2474      H2483   1.083       .  S
C2475      C2476   1.409       .  A
C2476      H2484   1.083       .  S
C2485      C2486   1.396       .  A
C2485      C2490   1.402       .  A
C2485      H2501   1.084       .  S
C2486      C2487   1.402       .  A
C2486      H2502   1.084       .  S
C2487      C2497   1.399       .  A
C2487      C2488   1.411       .  A
C2488      C2494   1.410       .  A
C2488      C2489   1.411       .  A
C2489      C2491   1.412       .  A
C2489      C2490   1.410       .  A
C2490      C2498   1.398       .  A
C2491      C2500   1.405       .  A
C2491      C2492   1.404       .  A
C2492      C2493   1.400       .  A
C2492      H2503   1.084       .  S
C2493      C2494   1.405       .  A
C2493      H2504   1.083       .  S
C2494      C2495   1.404       .  A
C2495      C2496   1.410       .  A
C2495      H2505   1.082       .  S
C2496      C2497   1.406       .  A
C2497      H2506   1.082       .  S
C2498      C2499   1.406       .  A
C2498      H2507   1.084       .  S
C2499      C2500   1.408       .  A
C2500      H2508   1.084       .  S
C2509      C2510   1.400       .  A
C2509      C2514   1.404       .  A
C2509      H2525   1.083       .  S
C2510      C2511   1.404       .  A
C2510      H2526   1.084       .  S
C2511      C2521   1.404       .  A
C2511      C2512   1.411       .  A
C2512      C2518   1.412       .  A
C2512      C2513   1.414       .  A
C2513      C2515   1.411       .  A
C2513      C2514   1.411       .  A
C2514      C2522   1.404       .  A
C2515      C2524   1.405       .  A
C2515      C2516   1.404       .  A
C2516      C2517   1.400       .  A
C2516      H2527   1.083       .  S
C2517      C2518   1.404       .  A
C2517      H2528   1.084       .  S
C2518      C2519   1.406       .  A
C2519      C2520   1.408       .  A
C2519      H2529   1.084       .  S
C2520      C2521   1.409       .  A
C2521      H2530   1.084       .  S
C2522      C2523   1.409       .  A
C2522      H2531   1.083       .  S
C2523      C2524   1.409       .  A
C2524      H2532   1.083       .  S
C2533      C2534   1.397       .  A
C2533      C2538   1.403       .  A
C2533      H2549   1.084       .  S
C2534      C2535   1.402       .  A
C2534      H2550   1.084       .  S
C2535      C2545   1.401       .  A
C2535      C2536   1.412       .  A
C2536      C2542   1.410       .  A
C2536      C2537   1.411       .  A
C2537      C2539   1.412       .  A
C2537      C2538   1.409       .  A
C2538      C2546   1.399       .  A
C2539      C2548   1.405       .  A
C2539      C2540   1.404       .  A
C2540      C2541   1.400       .  A
C2540      H2551   1.083       .  S
C2541      C2542   1.404       .  A
C2541      H2552   1.084       .  S
C2542      C2543   1.403       .  A
C2543      C2544   1.409       .  A
C2543      H2553   1.084       .  S
C2544      C2545   1.405       .  A
C2545      H2554   1.084       .  S
C2546      C2547   1.408       .  A
C2546      H2555   1.082       .  S
C2547      C2548   1.408       .  A
C2548      H2556   1.083       .  S
C2557      C2558   1.399       .  A
C2557      C2562   1.403       .  A
C2557      H2573   1.083       .  S
C2558      C2559   1.403       .  A
C2558      H2574   1.084       .  S
C2559      C2569   1.403       .  A
C2559      C2560   1.412       .  A
C2560      C2566   1.411       .  A
C2560      C2561   1.410       .  A
C2561      C2563   1.411       .  A
C2561      C2562   1.411       .  A
C2562      C2570   1.403       .  A
C2563      C2572   1.400       .  A
C2563      C2564   1.403       .  A
C2564      C2565   1.398       .  A
C2564      H2575   1.084       .  S
C2565      C2566   1.403       .  A
C2565      H2576   1.083       .  S
C2566      C2567   1.400       .  A
C2567      C2568   1.405       .  A
C2567      H2577   1.084       .  S
C2568      C2569   1.405       .  A
C2569      H2578   1.084       .  S
C2570      C2571   1.406       .  A
C2570      H2579   1.084       .  S
C2571      C2572   1.406       .  A
C2572      H2580   1.084       .  S
C2581      C2582   1.399       .  A
C2581      C2586   1.404       .  A
C2581      H2597   1.084       .  S
C2582      C2583   1.404       .  A
C2582      H2598   1.083       .  S
C2583      C2593   1.403       .  A
C2583      C2584   1.412       .  A
C2584      C2590   1.411       .  A
C2584      C2585   1.410       .  A
C2585      C2587   1.412       .  A
C2585      C2586   1.412       .  A
C2586      C2594   1.403       .  A
C2587      C2596   1.399       .  A
C2587      C2588   1.402       .  A
C2588      C2589   1.397       .  A
C2588      H2599   1.083       .  S
C2589      C2590   1.403       .  A
C2589      H2600   1.084       .  S
C2590      C2591   1.399       .  A
C2591      C2592   1.405       .  A
C2591      H2601   1.084       .  S
C2592      C2593   1.406       .  A
C2593      H2602   1.084       .  S
C2594      C2595   1.404       .  A
C2594      H2603   1.084       .  S
C2595      C2596   1.402       .  A
C2596      H2604   1.085       .  S
C2605      C2606   1.399       .  A
C2605      C2610   1.404       .  A
C2605      H2621   1.083       .  S
C2606      C2607   1.404       .  A
C2606      H2622   1.084       .  S
C2607      C2617   1.403       .  A
C2607      C2608   1.411       .  A
C2608      C2614   1.412       .  A
C2608      C2609   1.414       .  A
C2609      C2611   1.411       .  A
C2609      C2610   1.412       .  A
C2610      C2618   1.405       .  A
C2611      C2620   1.405       .  A
C2611      C2612   1.404       .  A
C2612      C2613   1.400       .  A
C2612      H2623   1.083       .  S
C2613      C2614   1.404       .  A
C2613      H2624   1.084       .  S
C2614      C2615   1.406       .  A
C2615      C2616   1.406       .  A
C2615      H2625   1.084       .  S
C2616      C2617   1.407       .  A
C2617      H2626   1.084       .  S
C2618      C2619   1.407       .  A
C2618      H2627   1.084       .  S
C2619      C2620   1.407       .  A
C2620      H2628   1.084       .  S
C2629      C2630   1.402       .  A
C2629      C2634   1.405       .  A
C2629      H2645   1.083       .  S
C2630      C2631   1.405       .  A
C2630      H2646   1.084       .  S
C2631      C2641   1.408       .  A
C2631      C2632   1.412       .  A
C2632      C2638   1.412       .  A
C2632      C2633   1.414       .  A
C2633      C2635   1.411       .  A
C2633      C2634   1.412       .  A
C2634      C2642   1.409       .  A
C2635      C2644   1.402       .  A
C2635      C2636   1.403       .  A
C2636      C2637   1.398       .  A
C2636      H2647   1.084       .  S
C2637      C2638   1.403       .  A
C2637      H2648   1.083       .  S
C2638      C2639   1.403       .  A
C2639      C2640   1.405       .  A
C2639      H2649   1.084       .  S
C2640      C2641   1.407       .  A
C2641      H2650   1.084       .  S
C2642      C2643   1.409       .  A
C2642      H2651   1.084       .  S
C2643      C2644   1.407       .  A
C2644      H2652   1.084       .  S
C2653      C2654   1.398       .  A
C2653      C2658   1.403       .  A
C2653      H2669   1.084       .  S
C2654      C2655   1.403       .  A
C2654      H2670   1.084       .  S
C2655      C2665   1.400       .  A
C2655      C2656   1.411       .  A
C2656      C2662   1.413       .  A
C2656      C2657   1.411       .  A
C2657      C2659   1.411       .  A
C2657      C2658   1.412       .  A
C2658      C2666   1.401       .  A
C2659      C2668   1.403       .  A
C2659      C2660   1.404       .  A
C2660      C2661   1.400       .  A
C2660      H2671   1.083       .  S
C2661      C2662   1.404       .  A
C2661      H2672   1.084       .  S
C2662      C2663   1.405       .  A
C2663      C2664   1.404       .  A
C2663      H2673   1.084       .  S
C2664      C2665   1.405       .  A
C2665      H2674   1.084       .  S
C2666      C2667   1.404       .  A
C2666      H2675   1.084       .  S
C2667      C2668   1.405       .  A
C2668      H2676   1.084       .  S
C2677      C2678   1.401       .  A
C2677      C2682   1.404       .  A
C2677      H2693   1.083       .  S
C2678      C2679   1.404       .  A
C2678      H2694   1.084       .  S
C2679      C2689   1.407       .  A
C2679      C2680   1.413       .  A
C2680      C2686   1.411       .  A
C2680      C2681   1.412       .  A
C2681      C2683   1.411       .  A
C2681      C2682   1.411       .  A
C2682      C2690   1.406       .  A
C2683      C2692   1.401       .  A
C2683      C2684   1.403       .  A
C2684      C2685   1.397       .  A
C2684      H2695   1.084       .  S
C2685      C2686   1.403       .  A
C2685      H2696   1.083       .  S
C2686      C2687   1.400       .  A
C2687      C2688   1.405       .  A
C2687      H2697   1.084       .  S
C2688      C2689   1.406       .  A
C2689      H2698   1.084       .  S
C2690      C2691   1.408       .  A
C2690      H2699   1.084       .  S
C2691      C2692   1.406       .  A
C2692      H2700   1.084       .  S
C2701      C2702   1.401       .  A
C2701      C2706   1.404       .  A
C2701      H2717   1.084       .  S
C2702      C2703   1.405       .  A
C2702      H2718   1.083       .  S
C2703      C2713   1.407       .  A
C2703      C2704   1.412       .  A
C2704      C2710   1.411       .  A
C2704      C2705   1.415       .  A
C2705      C2707   1.412       .  A
C2705      C2706   1.413       .  A
C2706      C2714   1.407       .  A
C2707      C2716   1.405       .  A
C2707      C2708   1.404       .  A
C2708      C2709   1.400       .  A
C2708      H2719   1.083       .  S
C2709      C2710   1.404       .  A
C2709      H2720   1.084       .  S
C2710      C2711   1.405       .  A
C2711      C2712   1.408       .  A
C2711      H2721   1.084       .  S
C2712      C2713   1.408       .  A
C2713      H2722   1.084       .  S
C2714      C2715   1.405       .  A
C2714      H2723   1.084       .  S
C2715      C2716   1.406       .  A
C2716      H2724   1.084       .  S
C2725      C2726   1.398       .  A
C2725      C2730   1.403       .  A
C2725      H2741   1.084       .  S
C2726      C2727   1.404       .  A
C2726      H2742   1.083       .  S
C2727      C2737   1.401       .  A
C2727      C2728   1.409       .  A
C2728      C2734   1.413       .  A
C2728      C2729   1.412       .  A
C2729      C2731   1.411       .  A
C2729      C2730   1.413       .  A
C2730      C2738   1.403       .  A
C2731      C2740   1.403       .  A
C2731      C2732   1.404       .  A
C2732      C2733   1.400       .  A
C2732      H2743   1.083       .  S
C2733      C2734   1.404       .  A
C2733      H2744   1.084       .  S
C2734      C2735   1.407       .  A
C2735      C2736   1.406       .  A
C2735      H2745   1.084       .  S
C2736      C2737   1.409       .  A
C2737      H2746   1.083       .  S
C2738      C2739   1.405       .  A
C2738      H2747   1.084       .  S
C2739      C2740   1.406       .  A
C2740      H2748   1.084       .  S
C2749      C2750   1.401       .  A
C2749      C2754   1.404       .  A
C2749      H2765   1.084       .  S
C2750      C2751   1.405       .  A
C2750      H2766   1.083       .  S
C2751      C2761   1.406       .  A
C2751      C2752   1.411       .  A
C2752      C2758   1.411       .  A
C2752      C2753   1.413       .  A
C2753      C2755   1.412       .  A
C2753      C2754   1.411       .  A
C2754      C2762   1.405       .  A
C2755      C2764   1.403       .  A
C2755      C2756   1.403       .  A
C2756      C2757   1.398       .  A
C2756      H2767   1.084       .  S
C2757      C2758   1.403       .  A
C2757      H2768   1.084       .  S
C2758      C2759   1.403       .  A
C2759      C2760   1.407       .  A
C2759      H2769   1.083       .  S
C2760      C2761   1.410       .  A
C2761      H2770   1.083       .  S
C2762      C2763   1.407       .  A
C2762      H2771   1.084       .  S
C2763      C2764   1.405       .  A
C2764      H2772   1.084       .  S
C2773      C2774   1.398       .  A
C2773      C2778   1.403       .  A
C2773      H2789   1.084       .  S
C2774      C2775   1.403       .  A
C2774      H2790   1.083       .  S
C2775      C2785   1.402       .  A
C2775      C2776   1.412       .  A
C2776      C2782   1.411       .  A
C2776      C2777   1.409       .  A
C2777      C2779   1.411       .  A
C2777      C2778   1.411       .  A
C2778      C2786   1.401       .  A
C2779      C2788   1.400       .  A
C2779      C2780   1.403       .  A
C2780      C2781   1.397       .  A
C2780      H2791   1.083       .  S
C2781      C2782   1.403       .  A
C2781      H2792   1.084       .  S
C2782      C2783   1.400       .  A
C2783      C2784   1.406       .  A
C2783      H2793   1.084       .  S
C2784      C2785   1.405       .  A
C2785      H2794   1.084       .  S
C2786      C2787   1.406       .  A
C2786      H2795   1.084       .  S
C2787      C2788   1.405       .  A
C2788      H2796   1.084       .  S
C2797      C2798   1.398       .  A
C2797      C2802   1.403       .  A
C2797      H2813   1.084       .  S
C2798      C2799   1.403       .  A
C2798      H2814   1.084       .  S
C2799      C2809   1.402       .  A
C2799      C2800   1.411       .  A
C2800      C2806   1.412       .  A
C2800      C2801   1.412       .  A
C2801      C2803   1.411       .  A
C2801      C2802   1.411       .  A
C2802      C2810   1.402       .  A
C2803      C2812   1.404       .  A
C2803      C2804   1.404       .  A
C2804      C2805   1.400       .  A
C2804      H2815   1.083       .  S
C2805      C2806   1.404       .  A
C2805      H2816   1.084       .  S
C2806      C2807   1.405       .  A
C2807      C2808   1.406       .  A
C2807      H2817   1.084       .  S
C2808      C2809   1.406       .  A
C2809      H2818   1.084       .  S
C2810      C2811   1.406       .  A
C2810      H2819   1.084       .  S
C2811      C2812   1.407       .  A
C2812      H2820   1.084       .  S
C2821      C2822   1.398       .  A
C2821      C2826   1.403       .  A
C2821      H2837   1.083       .  S
C2822      C2823   1.403       .  A
C2822      H2838   1.084       .  S
C2823      C2833   1.400       .  A
C2823      C2824   1.411       .  A
C2824      C2830   1.412       .  A
C2824      C2825   1.410       .  A
C2825      C2827   1.411       .  A
C2825      C2826   1.412       .  A
C2826      C2834   1.402       .  A
C2827      C2836   1.400       .  A
C2827      C2828   1.403       .  A
C2828      C2829   1.398       .  A
C2828      H2839   1.084       .  S
C2829      C2830   1.403       .  A
C2829      H2840   1.084       .  S
C2830      C2831   1.401       .  A
C2831      C2832   1.405       .  A
C2831      H2841   1.084       .  S
C2832      C2833   1.404       .  A
C2833      H2842   1.084       .  S
C2834      C2835   1.404       .  A
C2834      H2843   1.084       .  S
C2835      C2836   1.405       .  A
C2836      H2844   1.084       .  S
C2845      C2846   1.394       .  A
C2845      C2850   1.402       .  A
C2845      H2861   1.085       .  S
C2846      C2847   1.402       .  A
C2846      H2862   1.083       .  S
C2847      C2857   1.396       .  A
C2847      C2848   1.410       .  A
C2848      C2854   1.412       .  A
C2848      C2849   1.411       .  A
C2849      C2851   1.411       .  A
C2849      C2850   1.409       .  A
C2850      C2858   1.395       .  A
C2851      C2860   1.408       .  A
C2851      C2852   1.405       .  A
C2852      C2853   1.402       .  A
C2852      H2863   1.083       .  S
C2853      C2854   1.405       .  A
C2853      H2864   1.084       .  S
C2854      C2855   1.408       .  A
C2855      C2856   1.408       .  A
C2855      H2865   1.084       .  S
C2856      C2857   1.405       .  A
C2857      H2866   1.084       .  S
C2858      C2859   1.408       .  A
C2858      H2867   1.082       .  S
C2859      C2860   1.410       .  A
C2860      H2868   1.082       .  S
C2869      C2870   1.395       .  A
C2869      C2874   1.403       .  A
C2869      H2885   1.084       .  S
C2870      C2871   1.402       .  A
C2870      H2886   1.084       .  S
C2871      C2881   1.397       .  A
C2871      C2872   1.410       .  A
C2872      C2878   1.412       .  A
C2872      C2873   1.411       .  A
C2873      C2875   1.411       .  A
C2873      C2874   1.409       .  A
C2874      C2882   1.397       .  A
C2875      C2884   1.407       .  A
C2875      C2876   1.405       .  A
C2876      C2877   1.402       .  A
C2876      H2887   1.083       .  S
C2877      C2878   1.404       .  A
C2877      H2888   1.084       .  S
C2878      C2879   1.407       .  A
C2879      C2880   1.408       .  A
C2879      H2889   1.084       .  S
C2880      C2881   1.407       .  A
C2881      H2890   1.084       .  S
C2882      C2883   1.409       .  A
C2882      H2891   1.081       .  S
C2883      C2884   1.410       .  A
C2884      H2892   1.082       .  S
C2893      C2894   1.403       .  A
C2893      C2898   1.405       .  A
C2893      H2909   1.084       .  S
C2894      C2895   1.405       .  A
C2894      H2910   1.083       .  S
C2895      C2905   1.409       .  A
C2895      C2896   1.412       .  A
C2896      C2902   1.411       .  A
C2896      C2897   1.413       .  A
C2897      C2899   1.411       .  A
C2897      C2898   1.412       .  A
C2898      C2906   1.409       .  A
C2899      C2908   1.399       .  A
C2899      C2900   1.402       .  A
C2900      C2901   1.396       .  A
C2900      H2911   1.083       .  S
C2901      C2902   1.402       .  A
C2901      H2912   1.083       .  S
C2902      C2903   1.399       .  A
C2903      C2904   1.406       .  A
C2903      H2913   1.083       .  S
C2904      C2905   1.408       .  A
C2905      H2914   1.083       .  S
C2906      C2907   1.409       .  A
C2906      H2915   1.084       .  S
C2907      C2908   1.406       .  A
C2908      H2916   1.084       .  S
C2917      C2918   1.400       .  A
C2917      C2922   1.404       .  A
C2917      H2933   1.083       .  S
C2918      C2919   1.404       .  A
C2918      H2934   1.084       .  S
C2919      C2929   1.405       .  A
C2919      C2920   1.412       .  A
C2920      C2926   1.411       .  A
C2920      C2921   1.412       .  A
C2921      C2923   1.410       .  A
C2921      C2922   1.411       .  A
C2922      C2930   1.405       .  A
C2923      C2932   1.400       .  A
C2923      C2924   1.403       .  A
C2924      C2925   1.397       .  A
C2924      H2935   1.085       .  S
C2925      C2926   1.403       .  A
C2925      H2936   1.083       .  S
C2926      C2927   1.400       .  A
C2927      C2928   1.406       .  A
C2927      H2937   1.084       .  S
C2928      C2929   1.406       .  A
C2929      H2938   1.084       .  S
C2930      C2931   1.409       .  A
C2930      H2939   1.083       .  S
C2931      C2932   1.408       .  A
C2932      H2940   1.084       .  S
C2941      C2942   1.395       .  A
C2941      C2946   1.402       .  A
C2941      H2957   1.084       .  S
C2942      C2943   1.402       .  A
C2942      H2958   1.084       .  S
C2943      C2953   1.396       .  A
C2943      C2944   1.410       .  A
C2944      C2950   1.412       .  A
C2944      C2945   1.411       .  A
C2945      C2947   1.412       .  A
C2945      C2946   1.410       .  A
C2946      C2954   1.396       .  A
C2947      C2956   1.409       .  A
C2947      C2948   1.405       .  A
C2948      C2949   1.403       .  A
C2948      H2959   1.083       .  S
C2949      C2950   1.405       .  A
C2949      H2960   1.083       .  S
C2950      C2951   1.409       .  A
C2951      C2952   1.408       .  A
C2951      H2961   1.084       .  S
C2952      C2953   1.406       .  A
C2953      H2962   1.085       .  S
C2954      C2955   1.406       .  A
C2954      H2963   1.083       .  S
C2955      C2956   1.409       .  A
C2956      H2964   1.083       .  S
C2965      C2966   1.403       .  A
C2965      C2970   1.405       .  A
C2965      H2981   1.083       .  S
C2966      C2967   1.405       .  A
C2966      H2982   1.083       .  S
C2967      C2977   1.409       .  A
C2967      C2968   1.411       .  A
C2968      C2974   1.410       .  A
C2968      C2969   1.413       .  A
C2969      C2971   1.410       .  A
C2969      C2970   1.412       .  A
C2970      C2978   1.409       .  A
C2971      C2980   1.398       .  A
C2971      C2972   1.402       .  A
C2972      C2973   1.395       .  A
C2972      H2983   1.084       .  S
C2973      C2974   1.403       .  A
C2973      H2984   1.084       .  S
C2974      C2975   1.398       .  A
C2975      C2976   1.408       .  A
C2975      H2985   1.081       .  S
C2976      C2977   1.411       .  A
C2977      H2986   1.083       .  S
C2978      C2979   1.409       .  A
C2978      H2987   1.084       .  S
C2979      C2980   1.408       .  A
C2980      H2988   1.084       .  S
C2989      C2990   1.405       .  A
C2989      C2994   1.406       .  A
C2989      H3005   1.083       .  S
C2990      C2991   1.406       .  A
C2990      H3006   1.083       .  S
C2991      C3001   1.412       .  A
C2991      C2992   1.413       .  A
C2992      C2998   1.410       .  A
C2992      C2993   1.412       .  A
C2993      C2995   1.409       .  A
C2993      C2994   1.411       .  A
C2994      C3002   1.411       .  A
C2995      C3004   1.394       .  A
C2995      C2996   1.401       .  A
C2996      C2997   1.393       .  A
C2996      H3007   1.084       .  S
C2997      C2998   1.401       .  A
C2997      H3008   1.084       .  S
C2998      C2999   1.394       .  A
C2999      C3000   1.405       .  A
C2999      H3009   1.085       .  S
C3000      C3001   1.410       .  A
C3001      H3010   1.084       .  S
C3002      C3003   1.412       .  A
C3002      H3011   1.083       .  S
C3003      C3004   1.406       .  A
C3004      H3012   1.081       .  S
C3013      C3014   1.402       .  A
C3013      C3018   1.405       .  A
C3013      H3029   1.083       .  S
C3014      C3015   1.405       .  A
C3014      H3030   1.083       .  S
C3015      C3025   1.409       .  A
C3015      C3016   1.412       .  A
C3016      C3022   1.410       .  A
C3016      C3017   1.413       .  A
C3017      C3019   1.410       .  A
C3017      C3018   1.412       .  A
C3018      C3026   1.409       .  A
C3019      C3028   1.400       .  A
C3019      C3020   1.403       .  A
C3020      C3021   1.396       .  A
C3020      H3031   1.084       .  S
C3021      C3022   1.403       .  A
C3021      H3032   1.084       .  S
C3022      C3023   1.399       .  A
C3023      C3024   1.408       .  A
C3023      H3033   1.084       .  S
C3024      C3025   1.409       .  A
C3025      H3034   1.084       .  S
C3026      C3027   1.409       .  A
C3026      H3035   1.083       .  S
C3027      C3028   1.407       .  A
C3028      H3036   1.083       .  S
C3037      C3038   1.402       .  A
C3037      C3042   1.405       .  A
C3037      H3053   1.083       .  S
C3038      C3039   1.405       .  A
C3038      H3054   1.083       .  S
C3039      C3049   1.409       .  A
C3039      C3040   1.412       .  A
C3040      C3046   1.410       .  A
C3040      C3041   1.413       .  A
C3041      C3043   1.410       .  A
C3041      C3042   1.411       .  A
C3042      C3050   1.407       .  A
C3043      C3052   1.400       .  A
C3043      C3044   1.403       .  A
C3044      C3045   1.397       .  A
C3044      H3055   1.084       .  S
C3045      C3046   1.403       .  A
C3045      H3056   1.084       .  S
C3046      C3047   1.399       .  A
C3047      C3048   1.408       .  A
C3047      H3057   1.084       .  S
C3048      C3049   1.409       .  A
C3049      H3058   1.084       .  S
C3050      C3051   1.409       .  A
C3050      H3059   1.083       .  S
C3051      C3052   1.408       .  A
C3052      H3060   1.082       .  S
C3061      C3062   1.396       .  A
C3061      C3066   1.402       .  A
C3061      H3077   1.084       .  S
C3062      C3063   1.403       .  A
C3062      H3078   1.083       .  S
C3063      C3073   1.399       .  A
C3063      C3064   1.410       .  A
C3064      C3070   1.413       .  A
C3064      C3065   1.413       .  A
C3065      C3067   1.411       .  A
C3065      C3066   1.411       .  A
C3066      C3074   1.400       .  A
C3067      C3076   1.409       .  A
C3067      C3068   1.405       .  A
C3068      C3069   1.403       .  A
C3068      H3079   1.083       .  S
C3069      C3070   1.405       .  A
C3069      H3080   1.084       .  S
C3070      C3071   1.410       .  A
C3071      C3072   1.409       .  A
C3071      H3081   1.084       .  S
C3072      C3073   1.407       .  A
C3073      H3082   1.084       .  S
C3074      C3075   1.406       .  A
C3074      H3083   1.083       .  S
C3075      C3076   1.410       .  A
C3076      H3084   1.083       .  S
C3085      C3086   1.404       .  A
C3085      C3090   1.406       .  A
C3085      H3101   1.083       .  S
C3086      C3087   1.406       .  A
C3086      H3102   1.083       .  S
C3087      C3097   1.411       .  A
C3087      C3088   1.412       .  A
C3088      C3094   1.409       .  A
C3088      C3089   1.412       .  A
C3089      C3091   1.409       .  A
C3089      C3090   1.411       .  A
C3090      C3098   1.410       .  A
C3091      C3100   1.395       .  A
C3091      C3092   1.402       .  A
C3092      C3093   1.393       .  A
C3092      H3103   1.084       .  S
C3093      C3094   1.401       .  A
C3093      H3104   1.084       .  S
C3094      C3095   1.394       .  A
C3095      C3096   1.406       .  A
C3095      H3105   1.084       .  S
C3096      C3097   1.410       .  A
C3097      H3106   1.084       .  S
C3098      C3099   1.411       .  A
C3098      H3107   1.083       .  S
C3099      C3100   1.407       .  A
C3100      H3108   1.081       .  S
C3109      C3110   1.403       .  A
C3109      C3114   1.405       .  A
C3109      H3125   1.083       .  S
C3110      C3111   1.405       .  A
C3110      H3126   1.083       .  S
C3111      C3121   1.410       .  A
C3111      C3112   1.413       .  A
C3112      C3118   1.409       .  A
C3112      C3113   1.411       .  A
C3113      C3115   1.411       .  A
C3113      C3114   1.410       .  A
C3114      C3122   1.407       .  A
C3115      C3124   1.397       .  A
C3115      C3116   1.402       .  A
C3116      C3117   1.394       .  A
C3116      H3127   1.084       .  S
C3117      C3118   1.402       .  A
C3117      H3128   1.084       .  S
C3118      C3119   1.395       .  A
C3119      C3120   1.408       .  A
C3119      H3129   1.084       .  S
C3120      C3121   1.408       .  A
C3121      H3130   1.084       .  S
C3122      C3123   1.410       .  A
C3122      H3131   1.083       .  S
C3123      C3124   1.406       .  A
C3124      H3132   1.082       .  S
C3133      C3134   1.396       .  A
C3133      C3138   1.403       .  A
C3133      H3149   1.084       .  S
C3134      C3135   1.403       .  A
C3134      H3150   1.084       .  S
C3135      C3145   1.398       .  A
C3135      C3136   1.410       .  A
C3136      C3142   1.412       .  A
C3136      C3137   1.412       .  A
C3137      C3139   1.411       .  A
C3137      C3138   1.410       .  A
C3138      C3146   1.399       .  A
C3139      C3148   1.408       .  A
C3139      C3140   1.405       .  A
C3140      C3141   1.402       .  A
C3140      H3151   1.083       .  S
C3141      C3142   1.405       .  A
C3141      H3152   1.083       .  S
C3142      C3143   1.408       .  A
C3143      C3144   1.409       .  A
C3143      H3153   1.084       .  S
C3144      C3145   1.408       .  A
C3145      H3154   1.084       .  S
C3146      C3147   1.407       .  A
C3146      H3155   1.082       .  S
C3147      C3148   1.409       .  A
C3148      H3156   1.083       .  S
C3157      C3158   1.394       .  A
C3157      C3162   1.401       .  A
C3157      H3173   1.084       .  S
C3158      C3159   1.402       .  A
C3158      H3174   1.084       .  S
C3159      C3169   1.394       .  A
C3159      C3160   1.410       .  A
C3160      C3166   1.413       .  A
C3160      C3161   1.411       .  A
C3161      C3163   1.412       .  A
C3161      C3162   1.411       .  A
C3162      C3170   1.395       .  A
C3163      C3172   1.409       .  A
C3163      C3164   1.405       .  A
C3164      C3165   1.403       .  A
C3164      H3175   1.083       .  S
C3165      C3166   1.405       .  A
C3165      H3176   1.083       .  S
C3166      C3167   1.410       .  A
C3167      C3168   1.409       .  A
C3167      H3177   1.084       .  S
C3168      C3169   1.405       .  A
C3169      H3178   1.085       .  S
C3170      C3171   1.404       .  A
C3170      H3179   1.084       .  S
C3171      C3172   1.408       .  A
C3172      H3180   1.084       .  S
C3181      C3182   1.401       .  A
C3181      C3186   1.404       .  A
C3181      H3197   1.083       .  S
C3182      C3183   1.404       .  A
C3182      H3198   1.084       .  S
C3183      C3193   1.405       .  A
C3183      C3184   1.412       .  A
C3184      C3190   1.410       .  A
C3184      C3185   1.408       .  A
C3185      C3187   1.411       .  A
C3185      C3186   1.412       .  A
C3186      C3194   1.405       .  A
C3187      C3196   1.394       .  A
C3187      C3188   1.401       .  A
C3188      C3189   1.394       .  A
C3188      H3199   1.085       .  S
C3189      C3190   1.402       .  A
C3189      H3200   1.083       .  S
C3190      C3191   1.393       .  A
C3191      C3192   1.406       .  A
C3191      H3201   1.084       .  S
C3192      C3193   1.407       .  A
C3193      H3202   1.084       .  S
C3194      C3195   1.406       .  A
C3194      H3203   1.083       .  S
C3195      C3196   1.404       .  A
C3196      H3204   1.084       .  S
C3205      C3206   1.394       .  A
C3205      C3210   1.402       .  A
C3205      H3221   1.084       .  S
C3206      C3207   1.402       .  A
C3206      H3222   1.083       .  S
C3207      C3217   1.393       .  A
C3207      C3208   1.410       .  A
C3208      C3214   1.413       .  A
C3208      C3209   1.408       .  A
C3209      C3211   1.411       .  A
C3209      C3210   1.411       .  A
C3210      C3218   1.395       .  A
C3211      C3220   1.404       .  A
C3211      C3212   1.404       .  A
C3212      C3213   1.400       .  A
C3212      H3223   1.083       .  S
C3213      C3214   1.403       .  A
C3213      H3224   1.084       .  S
C3214      C3215   1.404       .  A
C3215      C3216   1.405       .  A
C3215      H3225   1.084       .  S
C3216      C3217   1.405       .  A
C3217      H3226   1.084       .  S
C3218      C3219   1.404       .  A
C3218      H3227   1.083       .  S
C3219      C3220   1.408       .  A
C3220      H3228   1.083       .  S
C3229      C3230   1.397       .  A
C3229      C3234   1.403       .  A
C3229      H3245   1.084       .  S
C3230      C3231   1.403       .  A
C3230      H3246   1.084       .  S
C3231      C3241   1.400       .  A
C3231      C3232   1.410       .  A
C3232      C3238   1.412       .  A
C3232      C3233   1.413       .  A
C3233      C3235   1.411       .  A
C3233      C3234   1.410       .  A
C3234      C3242   1.400       .  A
C3235      C3244   1.407       .  A
C3235      C3236   1.405       .  A
C3236      C3237   1.402       .  A
C3236      H3247   1.084       .  S
C3237      C3238   1.404       .  A
C3237      H3248   1.083       .  S
C3238      C3239   1.409       .  A
C3239      C3240   1.409       .  A
C3239      H3249   1.084       .  S
C3240      C3241   1.408       .  A
C3241      H3250   1.084       .  S
C3242      C3243   1.409       .  A
C3242      H3251   1.082       .  S
C3243      C3244   1.410       .  A
C3244      H3252   1.082       .  S
C3253      C3254   1.395       .  A
C3253      C3258   1.402       .  A
C3253      H3269   1.084       .  S
C3254      C3255   1.402       .  A
C3254      H3270   1.084       .  S
C3255      C3265   1.397       .  A
C3255      C3256   1.410       .  A
C3256      C3262   1.412       .  A
C3256      C3257   1.414       .  A
C3257      C3259   1.412       .  A
C3257      C3258   1.410       .  A
C3258      C3266   1.398       .  A
C3259      C3268   1.411       .  A
C3259      C3260   1.406       .  A
C3260      C3261   1.404       .  A
C3260      H3271   1.083       .  S
C3261      C3262   1.406       .  A
C3261      H3272   1.083       .  S
C3262      C3263   1.412       .  A
C3263      C3264   1.411       .  A
C3263      H3273   1.084       .  S
C3264      C3265   1.408       .  A
C3265      H3274   1.084       .  S
C3266      C3267   1.406       .  A
C3266      H3275   1.083       .  S
C3267      C3268   1.410       .  A
C3268      H3276   1.084       .  S
C3277      C3278   1.395       .  A
C3277      C3282   1.402       .  A
C3277      H3293   1.084       .  S
C3278      C3279   1.402       .  A
C3278      H3294   1.084       .  S
C3279      C3289   1.397       .  A
C3279      C3280   1.410       .  A
C3280      C3286   1.412       .  A
C3280      C3281   1.414       .  A
C3281      C3283   1.412       .  A
C3281      C3282   1.409       .  A
C3282      C3290   1.398       .  A
C3283      C3292   1.412       .  A
C3283      C3284   1.406       .  A
C3284      C3285   1.404       .  A
C3284      H3295   1.083       .  S
C3285      C3286   1.406       .  A
C3285      H3296   1.083       .  S
C3286      C3287   1.411       .  A
C3287      C3288   1.410       .  A
C3287      H3297   1.084       .  S
C3288      C3289   1.407       .  A
C3289      H3298   1.084       .  S
C3290      C3291   1.408       .  A
C3290      H3299   1.082       .  S
C3291      C3292   1.411       .  A
C3292      H3300   1.083       .  S
C3301      C3302   1.394       .  A
C3301      C3306   1.401       .  A
C3301      H3317   1.087       .  S
C3302      C3303   1.402       .  A
C3302      H3318   1.081       .  S
C3303      C3313   1.396       .  A
C3303      C3304   1.410       .  A
C3304      C3310   1.413       .  A
C3304      C3305   1.411       .  A
C3305      C3307   1.412       .  A
C3305      C3306   1.411       .  A
C3306      C3314   1.396       .  A
C3307      C3316   1.407       .  A
C3307      C3308   1.405       .  A
C3308      C3309   1.402       .  A
C3308      H3319   1.082       .  S
C3309      C3310   1.405       .  A
C3309      H3320   1.085       .  S
C3310      C3311   1.409       .  A
C3311      C3312   1.408       .  A
C3311      H3321   1.085       .  S
C3312      C3313   1.406       .  A
C3313      H3322   1.082       .  S
C3314      C3315   1.404       .  A
C3314      H3323   1.086       .  S
C3315      C3316   1.407       .  A
C3316      H3324   1.082       .  S
C3325      C3326   1.403       .  A
C3325      C3330   1.405       .  A
C3325      H3341   1.083       .  S
C3326      C3327   1.405       .  A
C3326      H3342   1.083       .  S
C3327      C3337   1.410       .  A
C3327      C3328   1.412       .  A
C3328      C3334   1.410       .  A
C3328      C3329   1.413       .  A
C3329      C3331   1.411       .  A
C3329      C3330   1.412       .  A
C3330      C3338   1.410       .  A
C3331      C3340   1.399       .  A
C3331      C3332   1.403       .  A
C3332      C3333   1.396       .  A
C3332      H3343   1.084       .  S
C3333      C3334   1.403       .  A
C3333      H3344   1.084       .  S
C3334      C3335   1.399       .  A
C3335      C3336   1.407       .  A
C3335      H3345   1.083       .  S
C3336      C3337   1.409       .  A
C3337      H3346   1.084       .  S
C3338      C3339   1.409       .  A
C3338      H3347   1.084       .  S
C3339      C3340   1.407       .  A
C3340      H3348   1.084       .  S
C3349      C3350   1.394       .  A
C3349      C3354   1.402       .  A
C3349      H3365   1.084       .  S
C3350      C3351   1.402       .  A
C3350      H3366   1.084       .  S
C3351      C3361   1.397       .  A
C3351      C3352   1.410       .  A
C3352      C3358   1.412       .  A
C3352      C3353   1.413       .  A
C3353      C3355   1.412       .  A
C3353      C3354   1.409       .  A
C3354      C3362   1.397       .  A
C3355      C3364   1.412       .  A
C3355      C3356   1.406       .  A
C3356      C3357   1.404       .  A
C3356      H3367   1.083       .  S
C3357      C3358   1.406       .  A
C3357      H3368   1.083       .  S
C3358      C3359   1.411       .  A
C3359      C3360   1.410       .  A
C3359      H3369   1.084       .  S
C3360      C3361   1.407       .  A
C3361      H3370   1.084       .  S
C3362      C3363   1.408       .  A
C3362      H3371   1.081       .  S
C3363      C3364   1.411       .  A
C3364      H3372   1.083       .  S
C3373      C3374   1.395       .  A
C3373      C3378   1.402       .  A
C3373      H3389   1.084       .  S
C3374      C3375   1.402       .  A
C3374      H3390   1.084       .  S
C3375      C3385   1.398       .  A
C3375      C3376   1.410       .  A
C3376      C3382   1.412       .  A
C3376      C3377   1.414       .  A
C3377      C3379   1.412       .  A
C3377      C3378   1.410       .  A
C3378      C3386   1.398       .  A
C3379      C3388   1.411       .  A
C3379      C3380   1.406       .  A
C3380      C3381   1.404       .  A
C3380      H3391   1.083       .  S
C3381      C3382   1.405       .  A
C3381      H3392   1.083       .  S
C3382      C3383   1.411       .  A
C3383      C3384   1.410       .  A
C3383      H3393   1.084       .  S
C3384      C3385   1.407       .  A
C3385      H3394   1.084       .  S
C3386      C3387   1.407       .  A
C3386      H3395   1.083       .  S
C3387      C3388   1.410       .  A
C3388      H3396   1.083       .  S
C3397      C3398   1.402       .  A
C3397      C3402   1.404       .  A
C3397      H3413   1.083       .  S
C3398      C3399   1.405       .  A
C3398      H3414   1.083       .  S
C3399      C3409   1.407       .  A
C3399      C3400   1.412       .  A
C3400      C3406   1.410       .  A
C3400      C3401   1.411       .  A
C3401      C3403   1.410       .  A
C3401      C3402   1.412       .  A
C3402      C3410   1.407       .  A
C3403      C3412   1.397       .  A
C3403      C3404   1.402       .  A
C3404      C3405   1.395       .  A
C3404      H3415   1.084       .  S
C3405      C3406   1.402       .  A
C3405      H3416   1.084       .  S
C3406      C3407   1.397       .  A
C3407      C3408   1.407       .  A
C3407      H3417   1.084       .  S
C3408      C3409   1.408       .  A
C3409      H3418   1.084       .  S
C3410      C3411   1.407       .  A
C3410      H3419   1.083       .  S
C3411      C3412   1.406       .  A
C3412      H3420   1.083       .  S
C3421      C3422   1.402       .  A
C3421      C3426   1.404       .  A
C3421      H3437   1.083       .  S
C3422      C3423   1.404       .  A
C3422      H3438   1.084       .  S
C3423      C3433   1.409       .  A
C3423      C3424   1.413       .  A
C3424      C3430   1.411       .  A
C3424      C3425   1.415       .  A
C3425      C3427   1.412       .  A
C3425      C3426   1.412       .  A
C3426      C3434   1.407       .  A
C3427      C3436   1.404       .  A
C3427      C3428   1.403       .  A
C3428      C3429   1.399       .  A
C3428      H3439   1.084       .  S
C3429      C3430   1.404       .  A
C3429      H3440   1.083       .  S
C3430      C3431   1.403       .  A
C3431      C3432   1.407       .  A
C3431      H3441   1.084       .  S
C3432      C3433   1.407       .  A
C3433      H3442   1.084       .  S
C3434      C3435   1.407       .  A
C3434      H3443   1.084       .  S
C3435      C3436   1.407       .  A
C3436      H3444   1.084       .  S
C3445      C3446   1.399       .  A
C3445      C3450   1.404       .  A
C3445      H3461   1.083       .  S
C3446      C3447   1.404       .  A
C3446      H3462   1.084       .  S
C3447      C3457   1.405       .  A
C3447      C3448   1.412       .  A
C3448      C3454   1.411       .  A
C3448      C3449   1.415       .  A
C3449      C3451   1.413       .  A
C3449      C3450   1.410       .  A
C3450      C3458   1.403       .  A
C3451      C3460   1.408       .  A
C3451      C3452   1.404       .  A
C3452      C3453   1.401       .  A
C3452      H3463   1.084       .  S
C3453      C3454   1.404       .  A
C3453      H3464   1.083       .  S
C3454      C3455   1.406       .  A
C3455      C3456   1.408       .  A
C3455      H3465   1.084       .  S
C3456      C3457   1.408       .  A
C3457      H3466   1.084       .  S
C3458      C3459   1.408       .  A
C3458      H3467   1.084       .  S
C3459      C3460   1.407       .  A
C3460      H3468   1.084       .  S
C3469      C3470   1.398       .  A
C3469      C3474   1.403       .  A
C3469      H3485   1.083       .  S
C3470      C3471   1.403       .  A
C3470      H3486   1.084       .  S
C3471      C3481   1.402       .  A
C3471      C3472   1.411       .  A
C3472      C3478   1.412       .  A
C3472      C3473   1.413       .  A
C3473      C3475   1.411       .  A
C3473      C3474   1.411       .  A
C3474      C3482   1.402       .  A
C3475      C3484   1.406       .  A
C3475      C3476   1.404       .  A
C3476      C3477   1.401       .  A
C3476      H3487   1.083       .  S
C3477      C3478   1.404       .  A
C3477      H3488   1.084       .  S
C3478      C3479   1.406       .  A
C3479      C3480   1.407       .  A
C3479      H3489   1.084       .  S
C3480      C3481   1.405       .  A
C3481      H3490   1.084       .  S
C3482      C3483   1.406       .  A
C3482      H3491   1.084       .  S
C3483      C3484   1.408       .  A
C3484      H3492   1.084       .  S
C3493      C3494   1.401       .  A
C3493      C3498   1.404       .  A
C3493      H3509   1.084       .  S
C3494      C3495   1.404       .  A
C3494      H3510   1.083       .  S
C3495      C3505   1.406       .  A
C3495      C3496   1.411       .  A
C3496      C3502   1.412       .  A
C3496      C3497   1.414       .  A
C3497      C3499   1.410       .  A
C3497      C3498   1.413       .  A
C3498      C3506   1.408       .  A
C3499      C3508   1.402       .  A
C3499      C3500   1.404       .  A
C3500      C3501   1.399       .  A
C3500      H3511   1.083       .  S
C3501      C3502   1.403       .  A
C3501      H3512   1.084       .  S
C3502      C3503   1.404       .  A
C3503      C3504   1.406       .  A
C3503      H3513   1.084       .  S
C3504      C3505   1.408       .  A
C3505      H3514   1.084       .  S
C3506      C3507   1.406       .  A
C3506      H3515   1.084       .  S
C3507      C3508   1.407       .  A
C3508      H3516   1.084       .  S
C3517      C3518   1.402       .  A
C3517      C3522   1.404       .  A
C3517      H3533   1.083       .  S
C3518      C3519   1.405       .  A
C3518      H3534   1.084       .  S
C3519      C3529   1.408       .  A
C3519      C3520   1.412       .  A
C3520      C3526   1.411       .  A
C3520      C3521   1.413       .  A
C3521      C3523   1.411       .  A
C3521      C3522   1.413       .  A
C3522      C3530   1.408       .  A
C3523      C3532   1.399       .  A
C3523      C3524   1.402       .  A
C3524      C3525   1.397       .  A
C3524      H3535   1.084       .  S
C3525      C3526   1.403       .  A
C3525      H3536   1.083       .  S
C3526      C3527   1.400       .  A
C3527      C3528   1.406       .  A
C3527      H3537   1.084       .  S
C3528      C3529   1.407       .  A
C3529      H3538   1.084       .  S
C3530      C3531   1.406       .  A
C3530      H3539   1.084       .  S
C3531      C3532   1.404       .  A
C3532      H3540   1.084       .  S
C3541      C3542   1.399       .  A
C3541      C3546   1.404       .  A
C3541      H3557   1.083       .  S
C3542      C3543   1.404       .  A
C3542      H3558   1.084       .  S
C3543      C3553   1.404       .  A
C3543      C3544   1.412       .  A
C3544      C3550   1.411       .  A
C3544      C3545   1.412       .  A
C3545      C3547   1.413       .  A
C3545      C3546   1.411       .  A
C3546      C3554   1.403       .  A
C3547      C3556   1.404       .  A
C3547      C3548   1.403       .  A
C3548      C3549   1.399       .  A
C3548      H3559   1.083       .  S
C3549      C3550   1.404       .  A
C3549      H3560   1.084       .  S
C3550      C3551   1.402       .  A
C3551      C3552   1.406       .  A
C3551      H3561   1.084       .  S
C3552      C3553   1.406       .  A
C3553      H3562   1.084       .  S
C3554      C3555   1.407       .  A
C3554      H3563   1.084       .  S
C3555      C3556   1.405       .  A
C3556      H3564   1.084       .  S
C3565      C3566   1.401       .  A
C3565      C3570   1.404       .  A
C3565      H3581   1.083       .  S
C3566      C3567   1.405       .  A
C3566      H3582   1.084       .  S
C3567      C3577   1.406       .  A
C3567      C3568   1.411       .  A
C3568      C3574   1.411       .  A
C3568      C3569   1.413       .  A
C3569      C3571   1.412       .  A
C3569      C3570   1.412       .  A
C3570      C3578   1.406       .  A
C3571      C3580   1.403       .  A
C3571      C3572   1.403       .  A
C3572      C3573   1.398       .  A
C3572      H3583   1.083       .  S
C3573      C3574   1.403       .  A
C3573      H3584   1.084       .  S
C3574      C3575   1.402       .  A
C3575      C3576   1.406       .  A
C3575      H3585   1.083       .  S
C3576      C3577   1.409       .  A
C3577      H3586   1.084       .  S
C3578      C3579   1.406       .  A
C3578      H3587   1.084       .  S
C3579      C3580   1.404       .  A
C3580      H3588   1.084       .  S
C3589      C3590   1.399       .  A
C3589      C3594   1.404       .  A
C3589      H3605   1.084       .  S
C3590      C3591   1.403       .  A
C3590      H3606   1.083       .  S
C3591      C3601   1.404       .  A
C3591      C3592   1.412       .  A
C3592      C3598   1.412       .  A
C3592      C3593   1.413       .  A
C3593      C3595   1.412       .  A
C3593      C3594   1.411       .  A
C3594      C3602   1.403       .  A
C3595      C3604   1.404       .  A
C3595      C3596   1.404       .  A
C3596      C3597   1.400       .  A
C3596      H3607   1.083       .  S
C3597      C3598   1.404       .  A
C3597      H3608   1.084       .  S
C3598      C3599   1.405       .  A
C3599      C3600   1.405       .  A
C3599      H3609   1.084       .  S
C3600      C3601   1.405       .  A
C3601      H3610   1.084       .  S
C3602      C3603   1.408       .  A
C3602      H3611   1.084       .  S
C3603      C3604   1.406       .  A
C3604      H3612   1.084       .  S
C3613      C3614   1.398       .  A
C3613      C3618   1.403       .  A
C3613      H3629   1.084       .  S
C3614      C3615   1.403       .  A
C3614      H3630   1.083       .  S
C3615      C3625   1.402       .  A
C3615      C3616   1.411       .  A
C3616      C3622   1.412       .  A
C3616      C3617   1.413       .  A
C3617      C3619   1.411       .  A
C3617      C3618   1.411       .  A
C3618      C3626   1.403       .  A
C3619      C3628   1.406       .  A
C3619      C3620   1.404       .  A
C3620      C3621   1.401       .  A
C3620      H3631   1.083       .  S
C3621      C3622   1.404       .  A
C3621      H3632   1.084       .  S
C3622      C3623   1.406       .  A
C3623      C3624   1.407       .  A
C3623      H3633   1.084       .  S
C3624      C3625   1.406       .  A
C3625      H3634   1.084       .  S
C3626      C3627   1.408       .  A
C3626      H3635   1.083       .  S
C3627      C3628   1.408       .  A
C3628      H3636   1.083       .  S
C3637      C3638   1.401       .  A
C3637      C3642   1.404       .  A
C3637      H3653   1.084       .  S
C3638      C3639   1.404       .  A
C3638      H3654   1.083       .  S
C3639      C3649   1.405       .  A
C3639      C3640   1.411       .  A
C3640      C3646   1.412       .  A
C3640      C3641   1.411       .  A
C3641      C3643   1.411       .  A
C3641      C3642   1.413       .  A
C3642      C3650   1.406       .  A
C3643      C3652   1.399       .  A
C3643      C3644   1.403       .  A
C3644      C3645   1.397       .  A
C3644      H3655   1.084       .  S
C3645      C3646   1.403       .  A
C3645      H3656   1.084       .  S
C3646      C3647   1.400       .  A
C3647      C3648   1.405       .  A
C3647      H3657   1.084       .  S
C3648      C3649   1.407       .  A
C3649      H3658   1.084       .  S
C3650      C3651   1.405       .  A
C3650      H3659   1.084       .  S
C3651      C3652   1.405       .  A
C3652      H3660   1.084       .  S
C3661      C3662   1.395       .  A
C3661      C3666   1.402       .  A
C3661      H3677   1.084       .  S
C3662      C3663   1.402       .  A
C3662      H3678   1.084       .  S
C3663      C3673   1.395       .  A
C3663      C3664   1.410       .  A
C3664      C3670   1.413       .  A
C3664      C3665   1.411       .  A
C3665      C3667   1.411       .  A
C3665      C3666   1.412       .  A
C3666      C3674   1.398       .  A
C3667      C3676   1.407       .  A
C3667      C3668   1.405       .  A
C3668      C3669   1.402       .  A
C3668      H3679   1.083       .  S
C3669      C3670   1.405       .  A
C3669      H3680   1.084       .  S
C3670      C3671   1.409       .  A
C3671      C3672   1.407       .  A
C3671      H3681   1.084       .  S
C3672      C3673   1.405       .  A
C3673      H3682   1.084       .  S
C3674      C3675   1.404       .  A
C3674      H3683   1.084       .  S
C3675      C3676   1.408       .  A
C3676      H3684   1.084       .  S
C3685      C3686   1.400       .  A
C3685      C3690   1.404       .  A
C3685      H3701   1.083       .  S
C3686      C3687   1.404       .  A
C3686      H3702   1.084       .  S
C3687      C3697   1.404       .  A
C3687      C3688   1.412       .  A
C3688      C3694   1.412       .  A
C3688      C3689   1.410       .  A
C3689      C3691   1.410       .  A
C3689      C3690   1.412       .  A
C3690      C3698   1.404       .  A
C3691      C3700   1.398       .  A
C3691      C3692   1.402       .  A
C3692      C3693   1.396       .  A
C3692      H3703   1.084       .  S
C3693      C3694   1.402       .  A
C3693      H3704   1.083       .  S
C3694      C3695   1.399       .  A
C3695      C3696   1.401       .  A
C3695      H3705   1.084       .  S
C3696      C3697   1.404       .  A
C3697      H3706   1.084       .  S
C3698      C3699   1.407       .  A
C3698      H3707   1.084       .  S
C3699      C3700   1.405       .  A
C3700      H3708   1.083       .  S
C3709      C3710   1.397       .  A
C3709      C3714   1.403       .  A
C3709      H3725   1.084       .  S
C3710      C3711   1.403       .  A
C3710      H3726   1.084       .  S
C3711      C3721   1.400       .  A
C3711      C3712   1.411       .  A
C3712      C3718   1.413       .  A
C3712      C3713   1.413       .  A
C3713      C3715   1.411       .  A
C3713      C3714   1.411       .  A
C3714      C3722   1.401       .  A
C3715      C3724   1.407       .  A
C3715      C3716   1.405       .  A
C3716      C3717   1.402       .  A
C3716      H3727   1.083       .  S
C3717      C3718   1.405       .  A
C3717      H3728   1.083       .  S
C3718      C3719   1.408       .  A
C3719      C3720   1.407       .  A
C3719      H3729   1.084       .  S
C3720      C3721   1.406       .  A
C3721      H3730   1.084       .  S
C3722      C3723   1.406       .  A
C3722      H3731   1.083       .  S
C3723      C3724   1.410       .  A
C3724      H3732   1.083       .  S
C3733      C3734   1.398       .  A
C3733      C3738   1.403       .  A
C3733      H3749   1.084       .  S
C3734      C3735   1.403       .  A
C3734      H3750   1.083       .  S
C3735      C3745   1.403       .  A
C3735      C3736   1.411       .  A
C3736      C3742   1.413       .  A
C3736      C3737   1.415       .  A
C3737      C3739   1.411       .  A
C3737      C3738   1.411       .  A
C3738      C3746   1.403       .  A
C3739      C3748   1.409       .  A
C3739      C3740   1.405       .  A
C3740      C3741   1.403       .  A
C3740      H3751   1.083       .  S
C3741      C3742   1.405       .  A
C3741      H3752   1.083       .  S
C3742      C3743   1.410       .  A
C3743      C3744   1.407       .  A
C3743      H3753   1.084       .  S
C3744      C3745   1.405       .  A
C3745      H3754   1.084       .  S
C3746      C3747   1.407       .  A
C3746      H3755   1.083       .  S
C3747      C3748   1.410       .  A
C3748      H3756   1.084       .  S
C3757      C3758   1.398       .  A
C3757      C3762   1.403       .  A
C3757      H3773   1.084       .  S
C3758      C3759   1.403       .  A
C3758      H3774   1.083       .  S
C3759      C3769   1.402       .  A
C3759      C3760   1.412       .  A
C3760      C3766   1.412       .  A
C3760      C3761   1.414       .  A
C3761      C3763   1.411       .  A
C3761      C3762   1.411       .  A
C3762      C3770   1.402       .  A
C3763      C3772   1.407       .  A
C3763      C3764   1.405       .  A
C3764      C3765   1.402       .  A
C3764      H3775   1.083       .  S
C3765      C3766   1.405       .  A
C3765      H3776   1.084       .  S
C3766      C3767   1.407       .  A
C3767      C3768   1.407       .  A
C3767      H3777   1.084       .  S
C3768      C3769   1.405       .  A
C3769      H3778   1.084       .  S
C3770      C3771   1.406       .  A
C3770      H3779   1.083       .  S
C3771      C3772   1.409       .  A
C3772      H3780   1.083       .  S
C3781      C3782   1.401       .  A
C3781      C3786   1.404       .  A
C3781      H3797   1.084       .  S
C3782      C3783   1.404       .  A
C3782      H3798   1.083       .  S
C3783      C3793   1.406       .  A
C3783      C3784   1.412       .  A
C3784      C3790   1.411       .  A
C3784      C3785   1.412       .  A
C3785      C3787   1.411       .  A
C3785      C3786   1.412       .  A
C3786      C3794   1.406       .  A
C3787      C3796   1.402       .  A
C3787      C3788   1.403       .  A
C3788      C3789   1.398       .  A
C3788      H3799   1.084       .  S
C3789      C3790   1.403       .  A
C3789      H3800   1.084       .  S
C3790      C3791   1.401       .  A
C3791      C3792   1.405       .  A
C3791      H3801   1.084       .  S
C3792      C3793   1.406       .  A
C3793      H3802   1.084       .  S
C3794      C3795   1.406       .  A
C3794      H3803   1.084       .  S
C3795      C3796   1.406       .  A
C3796      H3804   1.084       .  S
C3805      C3806   1.397       .  A
C3805      C3810   1.402       .  A
C3805      H3821   1.084       .  S
C3806      C3807   1.403       .  A
C3806      H3822   1.084       .  S
C3807      C3817   1.398       .  A
C3807      C3808   1.410       .  A
C3808      C3814   1.413       .  A
C3808      C3809   1.410       .  A
C3809      C3811   1.411       .  A
C3809      C3810   1.412       .  A
C3810      C3818   1.400       .  A
C3811      C3820   1.403       .  A
C3811      C3812   1.404       .  A
C3812      C3813   1.400       .  A
C3812      H3823   1.083       .  S
C3813      C3814   1.404       .  A
C3813      H3824   1.084       .  S
C3814      C3815   1.406       .  A
C3815      C3816   1.405       .  A
C3815      H3825   1.084       .  S
C3816      C3817   1.406       .  A
C3817      H3826   1.084       .  S
C3818      C3819   1.403       .  A
C3818      H3827   1.084       .  S
C3819      C3820   1.405       .  A
C3820      H3828   1.084       .  S
C3829      C3830   1.395       .  A
C3829      C3834   1.402       .  A
C3829      H3845   1.084       .  S
C3830      C3831   1.402       .  A
C3830      H3846   1.084       .  S
C3831      C3841   1.397       .  A
C3831      C3832   1.410       .  A
C3832      C3838   1.413       .  A
C3832      C3833   1.410       .  A
C3833      C3835   1.411       .  A
C3833      C3834   1.412       .  A
C3834      C3842   1.398       .  A
C3835      C3844   1.405       .  A
C3835      C3836   1.404       .  A
C3836      C3837   1.401       .  A
C3836      H3847   1.084       .  S
C3837      C3838   1.404       .  A
C3837      H3848   1.083       .  S
C3838      C3839   1.407       .  A
C3839      C3840   1.406       .  A
C3839      H3849   1.084       .  S
C3840      C3841   1.405       .  A
C3841      H3850   1.084       .  S
C3842      C3843   1.403       .  A
C3842      H3851   1.084       .  S
C3843      C3844   1.407       .  A
C3844      H3852   1.084       .  S
C3853      C3854   1.398       .  A
C3853      C3858   1.404       .  A
C3853      H3869   1.084       .  S
C3854      C3855   1.403       .  A
C3854      H3870   1.083       .  S
C3855      C3865   1.402       .  A
C3855      C3856   1.411       .  A
C3856      C3862   1.413       .  A
C3856      C3857   1.414       .  A
C3857      C3859   1.411       .  A
C3857      C3858   1.411       .  A
C3858      C3866   1.403       .  A
C3859      C3868   1.406       .  A
C3859      C3860   1.405       .  A
C3860      C3861   1.401       .  A
C3860      H3871   1.083       .  S
C3861      C3862   1.404       .  A
C3861      H3872   1.084       .  S
C3862      C3863   1.407       .  A
C3863      C3864   1.406       .  A
C3863      H3873   1.084       .  S
C3864      C3865   1.405       .  A
C3865      H3874   1.084       .  S
C3866      C3867   1.408       .  A
C3866      H3875   1.083       .  S
C3867      C3868   1.409       .  A
C3868      H3876   1.083       .  S
C3877      C3878   1.400       .  A
C3877      C3882   1.404       .  A
C3877      H3893   1.083       .  S
C3878      C3879   1.404       .  A
C3878      H3894   1.084       .  S
C3879      C3889   1.405       .  A
C3879      C3880   1.412       .  A
C3880      C3886   1.411       .  A
C3880      C3881   1.414       .  A
C3881      C3883   1.413       .  A
C3881      C3882   1.411       .  A
C3882      C3890   1.404       .  A
C3883      C3892   1.406       .  A
C3883      C3884   1.403       .  A
C3884      C3885   1.400       .  A
C3884      H3895   1.084       .  S
C3885      C3886   1.404       .  A
C3885      H3896   1.083       .  S
C3886      C3887   1.405       .  A
C3887      C3888   1.408       .  A
C3887      H3897   1.084       .  S
C3888      C3889   1.408       .  A
C3889      H3898   1.084       .  S
C3890      C3891   1.407       .  A
C3890      H3899   1.084       .  S
C3891      C3892   1.405       .  A
C3892      H3900   1.084       .  S
C3901      C3902   1.398       .  A
C3901      C3906   1.404       .  A
C3901      H3917   1.084       .  S
C3902      C3903   1.403       .  A
C3902      H3918   1.083       .  S
C3903      C3913   1.402       .  A
C3903      C3904   1.412       .  A
C3904      C3910   1.412       .  A
C3904      C3905   1.412       .  A
C3905      C3907   1.410       .  A
C3905      C3906   1.411       .  A
C3906      C3914   1.402       .  A
C3907      C3916   1.403       .  A
C3907      C3908   1.404       .  A
C3908      C3909   1.399       .  A
C3908      H3919   1.083       .  S
C3909      C3910   1.403       .  A
C3909      H3920   1.084       .  S
C3910      C3911   1.404       .  A
C3911      C3912   1.404       .  A
C3911      H3921   1.084       .  S
C3912      C3913   1.404       .  A
C3913      H3922   1.084       .  S
C3914      C3915   1.408       .  A
C3914      H3923   1.083       .  S
C3915      C3916   1.408       .  A
C3916      H3924   1.082       .  S
C3925      C3926   1.399       .  A
C3925      C3930   1.404       .  A
C3925      H3941   1.084       .  S
C3926      C3927   1.403       .  A
C3926      H3942   1.083       .  S
C3927      C3937   1.404       .  A
C3927      C3928   1.411       .  A
C3928      C3934   1.412       .  A
C3928      C3929   1.416       .  A
C3929      C3931   1.412       .  A
C3929      C3930   1.410       .  A
C3930      C3938   1.404       .  A
C3931      C3940   1.410       .  A
C3931      C3932   1.405       .  A
C3932      C3933   1.403       .  A
C3932      H3943   1.083       .  S
C3933      C3934   1.405       .  A
C3933      H3944   1.083       .  S
C3934      C3935   1.410       .  A
C3935      C3936   1.407       .  A
C3935      H3945   1.084       .  S
C3936      C3937   1.407       .  A
C3937      H3946   1.084       .  S
C3938      C3939   1.409       .  A
C3938      H3947   1.083       .  S
C3939      C3940   1.410       .  A
C3940      H3948   1.083       .  S
C3949      C3950   1.401       .  A
C3949      C3954   1.405       .  A
C3949      H3965   1.083       .  S
C3950      C3951   1.404       .  A
C3950      H3966   1.084       .  S
C3951      C3961   1.408       .  A
C3951      C3952   1.413       .  A
C3952      C3958   1.411       .  A
C3952      C3953   1.415       .  A
C3953      C3955   1.412       .  A
C3953      C3954   1.411       .  A
C3954      C3962   1.406       .  A
C3955      C3964   1.406       .  A
C3955      C3956   1.404       .  A
C3956      C3957   1.400       .  A
C3956      H3967   1.084       .  S
C3957      C3958   1.404       .  A
C3957      H3968   1.083       .  S
C3958      C3959   1.404       .  A
C3959      C3960   1.408       .  A
C3959      H3969   1.084       .  S
C3960      C3961   1.405       .  A
C3961      H3970   1.084       .  S
C3962      C3963   1.409       .  A
C3962      H3971   1.084       .  S
C3963      C3964   1.407       .  A
C3964      H3972   1.084       .  S
C3973      C3974   1.397       .  A
C3973      C3978   1.403       .  A
C3973      H3989   1.084       .  S
C3974      C3975   1.403       .  A
C3974      H3990   1.084       .  S
C3975      C3985   1.400       .  A
C3975      C3976   1.412       .  A
C3976      C3982   1.412       .  A
C3976      C3977   1.410       .  A
C3977      C3979   1.411       .  A
C3977      C3978   1.410       .  A
C3978      C3986   1.400       .  A
C3979      C3988   1.403       .  A
C3979      C3980   1.404       .  A
C3980      C3981   1.399       .  A
C3980      H3991   1.084       .  S
C3981      C3982   1.403       .  A
C3981      H3992   1.083       .  S
C3982      C3983   1.403       .  A
C3983      C3984   1.404       .  A
C3983      H3993   1.084       .  S
C3984      C3985   1.404       .  A
C3985      H3994   1.084       .  S
C3986      C3987   1.407       .  A
C3986      H3995   1.083       .  S
C3987      C3988   1.407       .  A
C3988      H3996   1.083       .  S
