geometry optimzed in LAMMPS
_audit_creation_date              2020-11-30 
_audit_creation_method            'lammps2cif' 
_symmetry_space_group_name_H-M    'P1' 
_symmetry_Int_Tables_number       1 
_symmetry_cell_setting            triclinic 
loop_ 
_symmetry_equiv_pos_as_xyz 
  x,y,z 
_cell_length_a                    35.7401812442195 
_cell_length_b                    35.69640663855489 
_cell_length_c                    30.63443111715117 
_cell_angle_alpha                 88.41064583131478 
_cell_angle_beta                  90.54563389041131 
_cell_angle_gamma                 119.95467836407875 
loop_ 
_atom_site_label 
_atom_site_type_symbol 
_atom_site_fract_x 
_atom_site_fract_y 
_atom_site_fract_z 
_atom_site_charge 
C1          C  0.24696231  0.49906028  0.16826198     0.02880
C2          C  0.22969664  0.45919464  0.14713226    -0.13270
C3          C  0.23343444  0.45879367  0.10170081     0.00380
C4          C  0.25469702  0.99787773  0.07810862    -0.11800
C5          C  0.26879858  0.03734085  0.09808423     0.02870
C6          C  0.26533451  0.03810707  0.14348712    -0.11220
H7          H  0.21383657  0.42901171  0.16588519     0.08460
H8          H  0.25931058  0.99738381  0.04354432     0.05990
H9          H  0.27763188  0.06871340  0.15953092     0.05840
C10         C  0.25086978  0.49981461  0.35636816     0.02880
C11         C  0.27290281  0.03956959  0.37791551    -0.13270
C12         C  0.26812191  0.04042271  0.42317026     0.00380
C13         C  0.24173671  0.50182371  0.44624421    -0.11800
C14         C  0.22299949  0.46208063  0.42605802     0.02870
C15         C  0.22686491  0.46092167  0.38079097    -0.11220
H16         H  0.29191490  0.06952405  0.35942579     0.08460
H17         H  0.23656640  0.50262004  0.48064982     0.05990
H18         H  0.21168222  0.43014473  0.36468112     0.05840
Fe19       Fe  0.36364955  0.13473686  0.00667931     1.65780
Fe20       Fe  0.36361528  0.22956748  0.01790883     1.73250
Fe21       Fe  0.26947713  0.13528744  0.01138230     1.54410
O22         O  0.26368091  0.08764407  0.47108085    -0.81930
O23         O  0.32808945  0.22668371  0.07262077    -0.80230
O24         O  0.32928679  0.10216394  0.45173824    -0.84430
O25         O  0.32049183  0.08475913  0.04747208    -0.79290
O26         O  0.26903388  0.17170903  0.45738839    -0.81060
O27         O  0.40957619  0.22986347  0.05910551    -0.83810
C28         C  0.28731906  0.07649124  0.06987436     0.96960
C29         C  0.28853140  0.08015501  0.44851982     1.04400
O30         O  0.33261371  0.16669369  0.01195611    -1.12790
O31         O  0.40307049  0.23947544  0.46428609    -0.75220
O32         O  0.41022149  0.18070721  0.46567755    -0.78710
O33         O  0.26750191  0.09774830  0.06541972    -0.79400
C34         C  0.42095501  0.21851610  0.45160405     0.95860
O35         O  0.40219039  0.16390367  0.06055190    -0.77360
O36         O  0.32125983  0.23715890  0.47710206    -0.82550
C37         C  0.28726410  0.20827381  0.07503248     0.98480
C38         C  0.28870219  0.21286692  0.45400598     1.04400
O39         O  0.26284031  0.17671502  0.05161303    -0.78190
C40         C  0.42003644  0.20266377  0.07324756     1.02700
C41         C  0.24833440  0.24884815  0.16825043     0.02880
C42         C  0.22635393  0.26608757  0.14405428    -0.13270
C43         C  0.22275483  0.26174970  0.09876048     0.00380
C44         C  0.24093659  0.24039252  0.07804409    -0.11800
C45         C  0.26651035  0.22709452  0.10075497     0.02870
C46         C  0.27030625  0.23125527  0.14613900    -0.11220
H47         H  0.21198577  0.28241175  0.16041228     0.08460
H48         H  0.23610450  0.23513948  0.04354562     0.05990
H49         H  0.28851362  0.21922609  0.16423770     0.05840
C50         C  0.25024436  0.25261999  0.35656640     0.02880
C51         C  0.26729390  0.23051958  0.38093925    -0.13270
C52         C  0.27074435  0.23428044  0.42633432     0.00380
C53         C  0.25725195  0.25998264  0.44682445    -0.11800
C54         C  0.23649408  0.27850071  0.42371084     0.02870
C55         C  0.23312886  0.27513360  0.37827107    -0.11220
H56         H  0.27894341  0.21176683  0.36455347     0.08460
H57         H  0.26171174  0.26459747  0.48142944     0.05990
H58         H  0.21769260  0.29005994  0.35994867     0.05840
Fe59       Fe  0.13393313  0.27042541  0.00752293     1.65780
Fe60       Fe  0.22864127  0.36526183  0.01315533     1.73250
Fe61       Fe  0.13308980  0.36377119  0.01723911     1.54410
O62         O  0.08400697  0.32192935  0.47698236    -0.81930
O63         O  0.23188791  0.39900840  0.06844495    -0.80230
O64         O  0.10087420  0.27396207  0.45281702    -0.84430
O65         O  0.08389326  0.26199208  0.04757855    -0.79290
O66         O  0.16467955  0.40300573  0.46317514    -0.81060
O67         O  0.23173089  0.31928113  0.05331513    -0.83810
C68         C  0.07677538  0.28542163  0.07276089     0.96960
C69         C  0.07761201  0.29166276  0.45180239     1.04400
O70         O  0.16553293  0.33329222  0.01262639    -1.12790
O71         O  0.23396618  0.33579439  0.45800704    -0.75220
O72         O  0.17894521  0.26874887  0.46722861    -0.78710
O73         O  0.09947611  0.32646081  0.07172875    -0.79400
C74         C  0.21454374  0.29590586  0.44955559     0.95860
O75         O  0.16490383  0.26260129  0.06163064    -0.77360
O76         O  0.23173129  0.41433746  0.47291547    -0.82550
C77         C  0.21207626  0.41927723  0.07620712     0.98480
C78         C  0.20491719  0.42321215  0.45450035     1.04400
O79         O  0.17691701  0.41071826  0.05777085    -0.78190
C80         C  0.20490923  0.28297551  0.07088597     1.02700
C81         C  0.49774316  0.24636088  0.16827149     0.02880
C82         C  0.45845715  0.22378845  0.14554746    -0.13270
C83         C  0.45896004  0.21952162  0.10025573     0.00380
C84         C  0.49838886  0.23786781  0.07819303    -0.11800
C85         C  0.03732001  0.26359372  0.09964900     0.02870
C86         C  0.03713284  0.26770750  0.14499214    -0.11220
H87         H  0.42796916  0.20941738  0.16300437     0.08460
H88         H  0.49856548  0.23377556  0.04343667     0.05990
H89         H  0.06729955  0.28634478  0.16217825     0.05840
C90         C  0.49919099  0.25138285  0.35647821     0.02880
C91         C  0.45984512  0.23573287  0.37928959    -0.13270
C92         C  0.46008950  0.24054323  0.42451247     0.00380
C93         C  0.49936741  0.26126872  0.44641767    -0.11800
C94         C  0.03833380  0.27364711  0.42498473     0.02870
C95         C  0.03833497  0.26849227  0.37976905    -0.11220
H96         H  0.42944449  0.22000774  0.36193935     0.08460
H97         H  0.49935714  0.26589463  0.48108496     0.05990
H98         H  0.06855288  0.27936683  0.36261363     0.05840
C99         C  0.49772833  0.24676188  0.21641701    -0.06380
C100        C  0.48538210  0.27342978  0.23715244    -0.17500
C101        C  0.48656081  0.27621795  0.28267837     0.10820
C102        C  0.49942959  0.25103693  0.30824869    -0.06300
C103        C  0.01194922  0.22448602  0.28745786    -0.17540
C104        C  0.01088231  0.22179683  0.24190012     0.10850
S105        S  0.47248257  0.31340241  0.30610822    -0.32500
S106        S  0.02620047  0.18561215  0.21826984    -0.32510
H107        H  0.99882246  0.17484307  0.18187321     0.28860
H108        H  0.50098793  0.32461088  0.34162595     0.28860
H109        H  0.47565868  0.29290866  0.21765496     0.19450
H110        H  0.02178018  0.20507287  0.30691821     0.19450
C111        C  0.25049435  0.25241097  0.30842792    -0.06380
C112        C  0.21091501  0.23317919  0.28647737    -0.17500
C113        C  0.20922569  0.23061903  0.24099141     0.10820
C114        C  0.24810735  0.24893431  0.21653618    -0.06300
C115        C  0.28770662  0.26814712  0.23859149    -0.17540
C116        C  0.28935287  0.27034237  0.28412023     0.10850
S117        S  0.15643818  0.20176334  0.21653202    -0.32500
S118        S  0.34202800  0.29751810  0.30902558    -0.32510
H119        H  0.33018749  0.31421690  0.34398262     0.28860
H120        H  0.16882495  0.18425245  0.18275408     0.28860
H121        H  0.18105651  0.21895497  0.30505501     0.19450
H122        H  0.31762438  0.28241523  0.22012001     0.19450
C123        C  0.25073738  0.49892915  0.30822004    -0.06380
C124        C  0.21141856  0.48560912  0.28660804    -0.17500
C125        C  0.20936028  0.48638116  0.24100540     0.10820
C126        C  0.24731901  0.50007895  0.21631716    -0.06300
C127        C  0.28663924  0.01336238  0.23785097    -0.17540
C128        C  0.28869988  0.01253005  0.28347961     0.10850
S129        S  0.15764126  0.47026731  0.21635428    -0.32500
S130        S  0.34026344  0.02778909  0.30804358    -0.32510
H131        H  0.32362988  0.00063055  0.34537634     0.28860
H132        H  0.17381462  0.49684684  0.17860264     0.28860
H133        H  0.18224809  0.47546101  0.30548080     0.19450
H134        H  0.31575508  0.02344605  0.21890505     0.19450
C135        C  0.24696255  0.49906033  0.66826204     0.02880
C136        C  0.22969682  0.45919467  0.64713234    -0.13270
C137        C  0.23343444  0.45879369  0.60170084     0.00380
C138        C  0.25469686  0.99787772  0.57810879    -0.11800
C139        C  0.26879855  0.03734085  0.59808428     0.02870
C140        C  0.26533466  0.03810707  0.64348722    -0.11220
H141        H  0.21383680  0.42901176  0.66588527     0.08460
H142        H  0.25931040  0.99738380  0.54354355     0.05990
H143        H  0.27763211  0.06871340  0.65953102     0.05840
C144        C  0.25086999  0.49981463  0.85636822     0.02880
C145        C  0.27290294  0.03956958  0.87791560    -0.13270
C146        C  0.26812190  0.04042271  0.92317029     0.00380
C147        C  0.24173664  0.50182372  0.94624436    -0.11800
C148        C  0.22299949  0.46208065  0.92605802     0.02870
C149        C  0.22686505  0.46092170  0.88079101    -0.11220
H150        H  0.29191508  0.06952404  0.85942587     0.08460
H151        H  0.23656633  0.50262003  0.98064914     0.05990
H152        H  0.21168241  0.43014476  0.86468115     0.05840
Fe153      Fe  0.36364955  0.13473683  0.50667939     1.65780
Fe154      Fe  0.36361527  0.22956746  0.51790883     1.73250
Fe155      Fe  0.26947711  0.13528742  0.51138225     1.54410
O156        O  0.26368091  0.08764405  0.97108094    -0.81930
O157        O  0.32808941  0.22668368  0.57262075    -0.80230
O158        O  0.32928678  0.10216404  0.95173815    -0.84430
O159        O  0.32049185  0.08475915  0.54747220    -0.79290
O160        O  0.26903387  0.17170901  0.95738843    -0.81060
O161        O  0.40957617  0.22986348  0.55910553    -0.83810
C162        C  0.28731902  0.07649122  0.56987442     0.96960
C163        C  0.28853137  0.08015503  0.94851985     1.04400
O164        O  0.33261370  0.16669366  0.51195611    -1.12790
O165        O  0.40307050  0.23947549  0.96428608    -0.75220
O166        O  0.41022151  0.18070727  0.96567750    -0.78710
O167        O  0.26750182  0.09774823  0.56541966    -0.79400
C168        C  0.42095503  0.21851616  0.95160403     0.95860
O169        O  0.40219039  0.16390368  0.56055197    -0.77360
O170        O  0.32125981  0.23715890  0.97710208    -0.82550
C171        C  0.28726406  0.20827377  0.57503245     0.98480
C172        C  0.28870217  0.21286691  0.95400600     1.04400
O173        O  0.26284028  0.17671498  0.55161300    -0.78190
C174        C  0.42003644  0.20266379  0.57324761     1.02700
C175        C  0.24833437  0.24884808  0.66825043     0.02880
C176        C  0.22635391  0.26608752  0.64405429    -0.13270
C177        C  0.22275480  0.26174966  0.59876049     0.00380
C178        C  0.24093655  0.24039248  0.57804408    -0.11800
C179        C  0.26651031  0.22709446  0.60075495     0.02870
C180        C  0.27030622  0.23125520  0.64613898    -0.11220
H181        H  0.21198576  0.28241169  0.66041230     0.08460
H182        H  0.23610446  0.23513946  0.54354561     0.05990
H183        H  0.28851359  0.21922601  0.66423766     0.05840
C184        C  0.25024434  0.25261992  0.85656639     0.02880
C185        C  0.26729389  0.23051953  0.88093925    -0.13270
C186        C  0.27074432  0.23428039  0.92633432     0.00380
C187        C  0.25725190  0.25998259  0.94682444    -0.11800
C188        C  0.23649402  0.27850064  0.92371081     0.02870
C189        C  0.23312881  0.27513351  0.87827104    -0.11220
H190        H  0.27894341  0.21176678  0.86455349     0.08460
H191        H  0.26171168  0.26459743  0.98142942     0.05990
H192        H  0.21769256  0.29005984  0.85994862     0.05840
Fe193      Fe  0.13393314  0.27042544  0.50752293     1.65780
Fe194      Fe  0.22864128  0.36526185  0.51315541     1.73250
Fe195      Fe  0.13308981  0.36377121  0.51723911     1.54410
O196        O  0.08400697  0.32192934  0.97698234    -0.81930
O197        O  0.23188785  0.39900836  0.56844507    -0.80230
O198        O  0.10087417  0.27396202  0.95281703    -0.84430
O199        O  0.08389327  0.26199211  0.54757855    -0.79290
O200        O  0.16467954  0.40300576  0.96317517    -0.81060
O201        O  0.23173089  0.31928114  0.55331519    -0.83810
C202        C  0.07677539  0.28542166  0.57276089     0.96960
C203        C  0.07761199  0.29166273  0.95180239     1.04400
O204        O  0.16553294  0.33329225  0.51262642    -1.12790
O205        O  0.23396612  0.33579433  0.95800696    -0.75220
O206        O  0.17894517  0.26874882  0.96722860    -0.78710
O207        O  0.09947614  0.32646085  0.57172875    -0.79400
C208        C  0.21454368  0.29590579  0.94955555     0.95860
O209        O  0.16490382  0.26260128  0.56163065    -0.77360
O210        O  0.23173126  0.41433740  0.97291538    -0.82550
C211        C  0.21207624  0.41927723  0.57620718     0.98480
C212        C  0.20491717  0.42321215  0.95450035     1.04400
O213        O  0.17691704  0.41071832  0.55777083    -0.78190
C214        C  0.20490922  0.28297550  0.57088600     1.02700
C215        C  0.49774322  0.24636097  0.66827149     0.02880
C216        C  0.45845719  0.22378853  0.64554749    -0.13270
C217        C  0.45896005  0.21952167  0.60025576     0.00380
C218        C  0.49838887  0.23786786  0.57819303    -0.11800
C219        C  0.03732002  0.26359376  0.59964899     0.02870
C220        C  0.03713285  0.26770754  0.64499214    -0.11220
H221        H  0.42796922  0.20941746  0.66300442     0.08460
H222        H  0.49856546  0.23377559  0.54343668     0.05990
H223        H  0.06729956  0.28634481  0.66217825     0.05840
C224        C  0.49919106  0.25138297  0.85647822     0.02880
C225        C  0.45984517  0.23573299  0.87928958    -0.13270
C226        C  0.46008953  0.24054332  0.92451246     0.00380
C227        C  0.49936743  0.26126878  0.94641768    -0.11800
C228        C  0.03833378  0.27364708  0.92498473     0.02870
C229        C  0.03833496  0.26849225  0.87976904    -0.11220
H230        H  0.42944456  0.22000787  0.86193931     0.08460
H231        H  0.49935714  0.26589466  0.98108499     0.05990
H232        H  0.06855288  0.27936682  0.86261363     0.05840
C233        C  0.49772842  0.24676200  0.71641702    -0.06380
C234        C  0.48538225  0.27342995  0.73715245    -0.17500
C235        C  0.48656096  0.27621812  0.78267837     0.10820
C236        C  0.49942969  0.25103706  0.80824870    -0.06300
C237        C  0.01194921  0.22448601  0.78745785    -0.17540
C238        C  0.01088231  0.22179684  0.74190010     0.10850
S239        S  0.47248280  0.31340263  0.80610822    -0.32500
S240        S  0.02620047  0.18561216  0.71826981    -0.32510
H241        H  0.99882247  0.17484310  0.68187318     0.28860
H242        H  0.50098814  0.32461106  0.84162596     0.28860
H243        H  0.47565885  0.29290884  0.71765496     0.19450
H244        H  0.02178016  0.20507285  0.80691819     0.19450
C245        C  0.25049434  0.25241087  0.80842790    -0.06380
C246        C  0.21091499  0.23317908  0.78647736    -0.17500
C247        C  0.20922568  0.23061892  0.74099140     0.10820
C248        C  0.24810733  0.24893422  0.71653617    -0.06300
C249        C  0.28770660  0.26814702  0.73859148    -0.17540
C250        C  0.28935286  0.27034227  0.78412022     0.10850
S251        S  0.15643816  0.20176321  0.71653201    -0.32500
S252        S  0.34202799  0.29751799  0.80902556    -0.32510
H253        H  0.33018749  0.31421680  0.84398261     0.28860
H254        H  0.16882495  0.18425234  0.68275406     0.28860
H255        H  0.18105650  0.21895486  0.80505500     0.19450
H256        H  0.31762436  0.28241513  0.72012000     0.19450
C257        C  0.25073763  0.49892919  0.80822010    -0.06380
C258        C  0.21141882  0.48560914  0.78660809    -0.17500
C259        C  0.20936054  0.48638118  0.74100546     0.10820
C260        C  0.24731928  0.50007900  0.71631723    -0.06300
C261        C  0.28663949  0.01336239  0.73785105    -0.17540
C262        C  0.28870013  0.01253006  0.78347970     0.10850
S263        S  0.15764152  0.47026730  0.71635434    -0.32500
S264        S  0.34026369  0.02778916  0.80804369    -0.32510
H265        H  0.32363015  0.00063068  0.84537648     0.28860
H266        H  0.17381487  0.49684690  0.67860274     0.28860
H267        H  0.18224834  0.47546100  0.80548085     0.19450
H268        H  0.31575534  0.02344609  0.71890514     0.19450
C269        C  0.24696229  0.99906033  0.16826199     0.02880
C270        C  0.22969662  0.95919468  0.14713230    -0.13270
C271        C  0.23343438  0.95879369  0.10170083     0.00380
C272        C  0.25469711  0.49787771  0.07810853    -0.11800
C273        C  0.26879864  0.53734083  0.09808424     0.02870
C274        C  0.26533454  0.53810703  0.14348712    -0.11220
H275        H  0.21383657  0.92901176  0.16588523     0.08460
H276        H  0.25931065  0.49738380  0.04354477     0.05990
H277        H  0.27763190  0.56871336  0.15953093     0.05840
C278        C  0.25086993  0.99981462  0.35636816     0.02880
C279        C  0.27290266  0.53956958  0.37791551    -0.13270
C280        C  0.26812179  0.54042271  0.42317024     0.00380
C281        C  0.24173682  0.00182371  0.44624411    -0.11800
C282        C  0.22299960  0.96208064  0.42605802     0.02870
C283        C  0.22686504  0.96092168  0.38079095    -0.11220
H284        H  0.29191475  0.56952404  0.35942577     0.08460
H285        H  0.23656642  0.00262005  0.48065032     0.05990
H286        H  0.21168235  0.93014475  0.36468111     0.05840
Fe287      Fe  0.36364955  0.63473686  0.00667928     1.65780
Fe288      Fe  0.36361529  0.72956748  0.01790892     1.73250
Fe289      Fe  0.26947713  0.63528743  0.01138237     1.54410
O290        O  0.26368086  0.58764407  0.47108089    -0.81930
O291        O  0.32808943  0.72668370  0.07262085    -0.80230
O292        O  0.32928671  0.60216395  0.45173816    -0.84430
O293        O  0.32049188  0.58475914  0.04747208    -0.79290
O294        O  0.26903386  0.67170906  0.45738848    -0.81060
O295        O  0.40957616  0.72986344  0.05910562    -0.83810
C296        C  0.28731910  0.57649122  0.06987438     0.96960
C297        C  0.28853131  0.58015501  0.44851981     1.04400
O298        O  0.33261371  0.66669369  0.01195615    -1.12790
O299        O  0.40307057  0.73947551  0.46428618    -0.75220
O300        O  0.41022143  0.68070719  0.46567740    -0.78710
O301        O  0.26750194  0.59774828  0.06541977    -0.79400
C302        C  0.42095502  0.71851613  0.45160402     0.95860
O303        O  0.40219047  0.66390368  0.06055183    -0.77360
O304        O  0.32125988  0.73715892  0.47710210    -0.82550
C305        C  0.28726408  0.70827379  0.07503256     0.98480
C306        C  0.28870221  0.71286695  0.45400605     1.04400
O307        O  0.26284030  0.67671499  0.05161313    -0.78190
C308        C  0.42003647  0.70266375  0.07324757     1.02700
C309        C  0.24833438  0.74884815  0.16825051     0.02880
C310        C  0.22635392  0.76608757  0.14405435    -0.13270
C311        C  0.22275481  0.76174968  0.09876055     0.00380
C312        C  0.24093657  0.74039250  0.07804417    -0.11800
C313        C  0.26651033  0.72709450  0.10075505     0.02870
C314        C  0.27030623  0.73125526  0.14613908    -0.11220
H315        H  0.21198577  0.78241175  0.16041234     0.08460
H316        H  0.23610448  0.73513946  0.04354569     0.05990
H317        H  0.28851361  0.71922608  0.16423778     0.05840
C318        C  0.25024441  0.75262004  0.35656648     0.02880
C319        C  0.26729394  0.73051962  0.38093932    -0.13270
C320        C  0.27074439  0.73428048  0.42633439     0.00380
C321        C  0.25725201  0.75998270  0.44682452    -0.11800
C322        C  0.23649415  0.77850078  0.42371091     0.02870
C323        C  0.23312891  0.77513365  0.37827114    -0.11220
H324        H  0.27894342  0.71176686  0.36455354     0.08460
H325        H  0.26171180  0.76459752  0.48142951     0.05990
H326        H  0.21769266  0.79006000  0.35994875     0.05840
Fe327      Fe  0.13393314  0.77042542  0.00752295     1.65780
Fe328      Fe  0.22864128  0.86526184  0.01315543     1.73250
Fe329      Fe  0.13308981  0.86377121  0.01723909     1.54410
O330        O  0.08400699  0.82192934  0.47698227    -0.81930
O331        O  0.23188786  0.89900839  0.06844505    -0.80230
O332        O  0.10087421  0.77396203  0.45281701    -0.84430
O333        O  0.08389327  0.76199209  0.04757857    -0.79290
O334        O  0.16467959  0.90300569  0.46317502    -0.81060
O335        O  0.23173088  0.81928115  0.05331525    -0.83810
C336        C  0.07677537  0.78542165  0.07276088     0.96960
C337        C  0.07761202  0.79166272  0.45180234     1.04400
O338        O  0.16553294  0.83329223  0.01262642    -1.12790
O339        O  0.23396625  0.83579443  0.45800716    -0.75220
O340        O  0.17894524  0.76874891  0.46722864    -0.78710
O341        O  0.09947609  0.82646083  0.07172872    -0.79400
C342        C  0.21454380  0.79590591  0.44955566     0.95860
O343        O  0.16490383  0.76260127  0.06163066    -0.77360
O344        O  0.23173133  0.91433749  0.47291557    -0.82550
C345        C  0.21207622  0.91927724  0.07620717     0.98480
C346        C  0.20491726  0.92321215  0.45450034     1.04400
O347        O  0.17691700  0.91071829  0.05777084    -0.78190
C348        C  0.20490922  0.78297550  0.07088604     1.02700
C349        C  0.49774322  0.74636091  0.16827147     0.02880
C350        C  0.45845720  0.72378846  0.14554746    -0.13270
C351        C  0.45896007  0.71952160  0.10025573     0.00380
C352        C  0.49838889  0.73786780  0.07819301    -0.11800
C353        C  0.03731999  0.76359373  0.09964897     0.02870
C354        C  0.03713281  0.76770751  0.14499212    -0.11220
H355        H  0.42796922  0.70941739  0.16300438     0.08460
H356        H  0.49856550  0.73377555  0.04343665     0.05990
H357        H  0.06729951  0.78634478  0.16217824     0.05840
C358        C  0.49919103  0.75138292  0.35647820     0.02880
C359        C  0.45984515  0.73573294  0.37928956    -0.13270
C360        C  0.46008951  0.74054329  0.42451245     0.00380
C361        C  0.49936742  0.76126876  0.44641766    -0.11800
C362        C  0.03833380  0.77364704  0.42498469     0.02870
C363        C  0.03833496  0.76849220  0.37976900    -0.11220
H364        H  0.42944453  0.72000781  0.36193931     0.08460
H365        H  0.49935714  0.76589464  0.48108496     0.05990
H366        H  0.06855287  0.77936678  0.36261358     0.05840
C367        C  0.49772840  0.74676194  0.21641700    -0.06380
C368        C  0.48538221  0.77342987  0.23715241    -0.17500
C369        C  0.48656090  0.77621804  0.28267834     0.10820
C370        C  0.49942964  0.75103699  0.30824868    -0.06300
C371        C  0.01194919  0.72448596  0.28745781    -0.17540
C372        C  0.01088227  0.72179679  0.24190006     0.10850
S373        S  0.47248271  0.81340253  0.30610818    -0.32500
S374        S  0.02620042  0.68561212  0.21826975    -0.32510
H375        H  0.99882241  0.67484305  0.18187313     0.28860
H376        H  0.50098805  0.82461098  0.34162592     0.28860
H377        H  0.47565881  0.79290876  0.21765492     0.19450
H378        H  0.02178015  0.70507281  0.30691813     0.19450
C379        C  0.25049438  0.75241100  0.30842799    -0.06380
C380        C  0.21091503  0.73317924  0.28647745    -0.17500
C381        C  0.20922570  0.73061907  0.24099150     0.10820
C382        C  0.24810735  0.74893433  0.21653625    -0.06300
C383        C  0.28770662  0.76814712  0.23859156    -0.17540
C384        C  0.28935289  0.77034238  0.28412030     0.10850
S385        S  0.15643818  0.70176340  0.21653212    -0.32500
S386        S  0.34202803  0.79751809  0.30902563    -0.32510
H387        H  0.33018755  0.81421692  0.34398267     0.28860
H388        H  0.16882492  0.68425248  0.18275418     0.28860
H389        H  0.18105654  0.71895505  0.30505510     0.19450
H390        H  0.31762438  0.78241521  0.22012007     0.19450
C391        C  0.25073749  0.99892918  0.30822004    -0.06380
C392        C  0.21141866  0.98560919  0.28660808    -0.17500
C393        C  0.20936034  0.98638124  0.24100545     0.10820
C394        C  0.24731904  0.00007902  0.21631717    -0.06300
C395        C  0.28663919  0.51336235  0.23785100    -0.17540
C396        C  0.28869979  0.51253003  0.28347965     0.10850
S397        S  0.15764130  0.97026744  0.21635438    -0.32500
S398        S  0.34026334  0.52778911  0.30804368    -0.32510
H399        H  0.32362976  0.50063056  0.34537642     0.28860
H400        H  0.17381465  0.99684696  0.17860273     0.28860
H401        H  0.18224821  0.97546109  0.30548088     0.19450
H402        H  0.31575505  0.52344603  0.21890512     0.19450
C403        C  0.24696251  0.99906032  0.66826207     0.02880
C404        C  0.22969675  0.95919466  0.64713237    -0.13270
C405        C  0.23343433  0.95879368  0.60170084     0.00380
C406        C  0.25469701  0.49787772  0.57810868    -0.11800
C407        C  0.26879864  0.53734085  0.59808426     0.02870
C408        C  0.26533471  0.53810707  0.64348718    -0.11220
H409        H  0.21383677  0.92901175  0.66588529     0.08460
H410        H  0.25931051  0.49738380  0.54354407     0.05990
H411        H  0.27763213  0.56871340  0.65953098     0.05840
C412        C  0.25087012  0.99981461  0.85636824     0.02880
C413        C  0.27290282  0.53956960  0.87791561    -0.13270
C414        C  0.26812182  0.54042272  0.92317029     0.00380
C415        C  0.24173671  0.00182372  0.94624428    -0.11800
C416        C  0.22299957  0.96208064  0.92605804     0.02870
C417        C  0.22686517  0.96092167  0.88079103    -0.11220
H418        H  0.29191497  0.56952407  0.85942588     0.08460
H419        H  0.23656632  0.00262005  0.98064957     0.05990
H420        H  0.21168253  0.93014473  0.86468118     0.05840
Fe421      Fe  0.36364953  0.63473683  0.50667928     1.65780
Fe422      Fe  0.36361529  0.72956746  0.51790889     1.73250
Fe423      Fe  0.26947711  0.63528743  0.51138230     1.54410
O424        O  0.26368087  0.58764405  0.97108100    -0.81930
O425        O  0.32808942  0.72668369  0.57262080    -0.80230
O426        O  0.32928672  0.60216403  0.95173815    -0.84430
O427        O  0.32049188  0.58475915  0.54747212    -0.79290
O428        O  0.26903385  0.67170902  0.95738853    -0.81060
O429        O  0.40957614  0.72986341  0.55910562    -0.83810
C430        C  0.28731908  0.57649122  0.56987438     0.96960
C431        C  0.28853132  0.58015502  0.94851988     1.04400
O432        O  0.33261370  0.66669367  0.51195612    -1.12790
O433        O  0.40307055  0.73947554  0.96428619    -0.75220
O434        O  0.41022146  0.68070726  0.96567742    -0.78710
O435        O  0.26750188  0.59774823  0.56541969    -0.79400
C436        C  0.42095502  0.71851618  0.95160404     0.95860
O437        O  0.40219047  0.66390367  0.56055181    -0.77360
O438        O  0.32125984  0.73715891  0.97710214    -0.82550
C439        C  0.28726407  0.70827377  0.57503251     0.98480
C440        C  0.28870218  0.71286692  0.95400609     1.04400
O441        O  0.26284028  0.67671497  0.55161308    -0.78190
C442        C  0.42003646  0.70266373  0.57324757     1.02700
C443        C  0.24833436  0.74884807  0.66825050     0.02880
C444        C  0.22635389  0.76608749  0.64405436    -0.13270
C445        C  0.22275478  0.76174964  0.59876056     0.00380
C446        C  0.24093654  0.74039248  0.57804415    -0.11800
C447        C  0.26651031  0.72709446  0.60075501     0.02870
C448        C  0.27030621  0.73125520  0.64613904    -0.11220
H449        H  0.21198574  0.78241166  0.66041238     0.08460
H450        H  0.23610446  0.73513946  0.54354567     0.05990
H451        H  0.28851359  0.71922601  0.66423773     0.05840
C452        C  0.25024437  0.75261993  0.85656647     0.02880
C453        C  0.26729391  0.73051954  0.88093933    -0.13270
C454        C  0.27074435  0.73428041  0.92633440     0.00380
C455        C  0.25725194  0.75998262  0.94682451    -0.11800
C456        C  0.23649407  0.77850068  0.92371088     0.02870
C457        C  0.23312885  0.77513354  0.87827111    -0.11220
H458        H  0.27894342  0.71176678  0.86455357     0.08460
H459        H  0.26171172  0.76459746  0.98142950     0.05990
H460        H  0.21769260  0.79005987  0.85994869     0.05840
Fe461      Fe  0.13393316  0.77042544  0.50752294     1.65780
Fe462      Fe  0.22864128  0.86526186  0.51315552     1.73250
Fe463      Fe  0.13308981  0.86377123  0.51723901     1.54410
O464        O  0.08400699  0.82192936  0.97698232    -0.81930
O465        O  0.23188774  0.89900831  0.56844519    -0.80230
O466        O  0.10087418  0.77396202  0.95281704    -0.84430
O467        O  0.08389329  0.76199214  0.54757855    -0.79290
O468        O  0.16467959  0.90300576  0.96317516    -0.81060
O469        O  0.23173087  0.81928114  0.55331530    -0.83810
C470        C  0.07677539  0.78542171  0.57276084     0.96960
C471        C  0.07761201  0.79166274  0.95180238     1.04400
O472        O  0.16553294  0.83329225  0.51262642    -1.12790
O473        O  0.23396619  0.83579435  0.95800708    -0.75220
O474        O  0.17894519  0.76874885  0.96722862    -0.78710
O475        O  0.09947610  0.82646090  0.57172866    -0.79400
C476        C  0.21454373  0.79590583  0.94955562     0.95860
O477        O  0.16490381  0.76260127  0.56163067    -0.77360
O478        O  0.23173131  0.91433742  0.97291547    -0.82550
C479        C  0.21207616  0.91927723  0.57620719     0.98480
C480        C  0.20491723  0.92321216  0.95450037     1.04400
O481        O  0.17691702  0.91071837  0.55777072    -0.78190
C482        C  0.20490920  0.78297548  0.57088606     1.02700
C483        C  0.49774321  0.74636090  0.66827147     0.02880
C484        C  0.45845719  0.72378845  0.64554746    -0.13270
C485        C  0.45896006  0.71952157  0.60025573     0.00380
C486        C  0.49838888  0.73786776  0.57819302    -0.11800
C487        C  0.03732003  0.76359381  0.59964896     0.02870
C488        C  0.03713287  0.76770760  0.64499210    -0.11220
H489        H  0.42796920  0.70941740  0.66300438     0.08460
H490        H  0.49856548  0.73377550  0.54343666     0.05990
H491        H  0.06729958  0.78634488  0.66217821     0.05840
C492        C  0.49919102  0.75138297  0.85647820     0.02880
C493        C  0.45984514  0.73573300  0.87928957    -0.13270
C494        C  0.46008951  0.74054335  0.92451245     0.00380
C495        C  0.49936742  0.76126882  0.94641767    -0.11800
C496        C  0.03833381  0.77364709  0.92498471     0.02870
C497        C  0.03833500  0.76849226  0.87976903    -0.11220
H498        H  0.42944452  0.72000787  0.86193932     0.08460
H499        H  0.49935714  0.76589470  0.98108497     0.05990
H500        H  0.06855291  0.77936684  0.86261362     0.05840
C501        C  0.49772839  0.74676194  0.71641700    -0.06380
C502        C  0.48538218  0.77342987  0.73715241    -0.17500
C503        C  0.48656088  0.77621806  0.78267833     0.10820
C504        C  0.49942963  0.75103703  0.80824868    -0.06300
C505        C  0.01194927  0.72448606  0.78745782    -0.17540
C506        C  0.01088237  0.72179690  0.74190007     0.10850
S507        S  0.47248268  0.81340255  0.80610815    -0.32500
S508        S  0.02620054  0.68561224  0.71826977    -0.32510
H509        H  0.99882255  0.67484317  0.68187313     0.28860
H510        H  0.50098803  0.82461102  0.84162589     0.28860
H511        H  0.47565877  0.79290875  0.71765491     0.19450
H512        H  0.02178023  0.70507290  0.80691815     0.19450
C513        C  0.25049435  0.75241087  0.80842798    -0.06380
C514        C  0.21091500  0.73317908  0.78647744    -0.17500
C515        C  0.20922568  0.73061892  0.74099148     0.10820
C516        C  0.24810733  0.74893421  0.71653624    -0.06300
C517        C  0.28770660  0.76814702  0.73859155    -0.17540
C518        C  0.28935287  0.77034227  0.78412029     0.10850
S519        S  0.15643816  0.70176320  0.71653210    -0.32500
S520        S  0.34202801  0.79751799  0.80902562    -0.32510
H521        H  0.33018751  0.81421680  0.84398267     0.28860
H522        H  0.16882494  0.68425233  0.68275415     0.28860
H523        H  0.18105651  0.71895486  0.80505509     0.19450
H524        H  0.31762436  0.78241512  0.72012006     0.19450
C525        C  0.25073772  0.99892915  0.80822012    -0.06380
C526        C  0.21141889  0.98560912  0.78660815    -0.17500
C527        C  0.20936058  0.98638117  0.74100552     0.10820
C528        C  0.24731929  0.00007898  0.71631725    -0.06300
C529        C  0.28663946  0.51336242  0.73785107    -0.17540
C530        C  0.28870006  0.51253010  0.78347972     0.10850
S531        S  0.15764153  0.97026731  0.71635446    -0.32500
S532        S  0.34026360  0.52778921  0.80804376    -0.32510
H533        H  0.32363003  0.50063070  0.84537654     0.28860
H534        H  0.17381486  0.99684693  0.67860287     0.28860
H535        H  0.18224843  0.97546099  0.80548094     0.19450
H536        H  0.31575533  0.52344613  0.71890519     0.19450
C537        C  0.74696236  0.49906035  0.16826199     0.02880
C538        C  0.72969669  0.45919470  0.14713230    -0.13270
C539        C  0.73343445  0.45879370  0.10170084     0.00380
C540        C  0.75469704  0.99787773  0.07810868    -0.11800
C541        C  0.76879866  0.03734085  0.09808427     0.02870
C542        C  0.76533471  0.03810706  0.14348718    -0.11220
H543        H  0.71383664  0.42901178  0.16588524     0.08460
H544        H  0.75931055  0.99738381  0.04354411     0.05990
H545        H  0.77763211  0.06871340  0.15953099     0.05840
C546        C  0.75086984  0.49981463  0.35636817     0.02880
C547        C  0.77290281  0.03956958  0.37791559    -0.13270
C548        C  0.76812183  0.04042271  0.42317028     0.00380
C549        C  0.74173672  0.50182370  0.44624422    -0.11800
C550        C  0.72299950  0.46208063  0.42605800     0.02870
C551        C  0.72686494  0.46092168  0.38079095    -0.11220
H552        H  0.79191495  0.06952405  0.35942586     0.08460
H553        H  0.73656639  0.50262001  0.48064981     0.05990
H554        H  0.71168225  0.43014475  0.36468110     0.05840
Fe555      Fe  0.86364954  0.13473683  0.00667927     1.65780
Fe556      Fe  0.86361528  0.22956746  0.01790886     1.73250
Fe557      Fe  0.76947711  0.13528742  0.01138234     1.54410
O558        O  0.76368088  0.08764405  0.47108096    -0.81930
O559        O  0.82808944  0.22668370  0.07262079    -0.80230
O560        O  0.82928673  0.10216402  0.45173814    -0.84430
O561        O  0.82049188  0.08475914  0.04747209    -0.79290
O562        O  0.76903385  0.17170902  0.45738849    -0.81060
O563        O  0.90957616  0.22986343  0.05910556    -0.83810
C564        C  0.78731910  0.07649123  0.06987440     0.96960
C565        C  0.78853132  0.08015502  0.44851986     1.04400
O566        O  0.83261370  0.16669367  0.01195612    -1.12790
O567        O  0.90307053  0.23947552  0.46428613    -0.75220
O568        O  0.91022146  0.18070725  0.46567742    -0.78710
O569        O  0.76750192  0.09774826  0.06541974    -0.79400
C570        C  0.92095502  0.21851617  0.45160401     0.95860
O571        O  0.90219045  0.16390366  0.06055182    -0.77360
O572        O  0.82125983  0.23715891  0.47710210    -0.82550
C573        C  0.78726409  0.20827378  0.07503253     0.98480
C574        C  0.78870217  0.21286692  0.45400605     1.04400
O575        O  0.76284030  0.17671498  0.05161311    -0.78190
C576        C  0.92003646  0.20266375  0.07324754     1.02700
C577        C  0.74833440  0.24884811  0.16825050     0.02880
C578        C  0.72635395  0.26608755  0.14405435    -0.13270
C579        C  0.72275485  0.26174970  0.09876055     0.00380
C580        C  0.74093660  0.24039251  0.07804416    -0.11800
C581        C  0.76651035  0.22709449  0.10075502     0.02870
C582        C  0.77030625  0.23125523  0.14613906    -0.11220
H583        H  0.71198580  0.28241173  0.16041236     0.08460
H584        H  0.73610450  0.23513948  0.04354568     0.05990
H585        H  0.78851361  0.21922603  0.16423775     0.05840
C586        C  0.75024435  0.25261996  0.35656646     0.02880
C587        C  0.76729388  0.23051955  0.38093932    -0.13270
C588        C  0.77074432  0.23428042  0.42633438     0.00380
C589        C  0.75725191  0.25998262  0.44682450    -0.11800
C590        C  0.73649404  0.27850068  0.42371088     0.02870
C591        C  0.73312883  0.27513356  0.37827111    -0.11220
H592        H  0.77894339  0.21176681  0.36455354     0.08460
H593        H  0.76171170  0.26459746  0.48142949     0.05990
H594        H  0.71769258  0.29005989  0.35994871     0.05840
Fe595      Fe  0.63393314  0.27042541  0.00752302     1.65780
Fe596      Fe  0.72864128  0.36526183  0.01315541     1.73250
Fe597      Fe  0.63308980  0.36377119  0.01723917     1.54410
O598        O  0.58400697  0.32192932  0.47698234    -0.81930
O599        O  0.73188791  0.39900840  0.06844504    -0.80230
O600        O  0.60087418  0.27396200  0.45281707    -0.84430
O601        O  0.58389327  0.26199209  0.04757864    -0.79290
O602        O  0.66467953  0.40300570  0.46317509    -0.81060
O603        O  0.73173091  0.31928114  0.05331521    -0.83810
C604        C  0.57677538  0.28542164  0.07276095     0.96960
C605        C  0.57761200  0.29166270  0.45180241     1.04400
O606        O  0.66553293  0.33329223  0.01262647    -1.12790
O607        O  0.73396612  0.33579437  0.45800702    -0.75220
O608        O  0.67894520  0.26874884  0.46722870    -0.78710
O609        O  0.59947612  0.32646083  0.07172881    -0.79400
C610        C  0.71454370  0.29590583  0.44955563     0.95860
O611        O  0.66490384  0.26260130  0.06163074    -0.77360
O612        O  0.73173127  0.41433745  0.47291546    -0.82550
C613        C  0.71207627  0.41927724  0.07620718     0.98480
C614        C  0.70491718  0.42321214  0.45450032     1.04400
O615        O  0.67691703  0.41071828  0.05777090    -0.78190
C616        C  0.70490925  0.28297551  0.07088605     1.02700
C617        C  0.99774320  0.24636089  0.16827145     0.02880
C618        C  0.95845718  0.22378845  0.14554744    -0.13270
C619        C  0.95896005  0.21952158  0.10025570     0.00380
C620        C  0.99838887  0.23786777  0.07819299    -0.11800
C621        C  0.53732000  0.26359374  0.09964905     0.02870
C622        C  0.53713281  0.26770750  0.14499219    -0.11220
H623        H  0.92796920  0.20941740  0.16300435     0.08460
H624        H  0.99856548  0.23377551  0.04343663     0.05990
H625        H  0.56729951  0.28634476  0.16217832     0.05840
C626        C  0.99919103  0.25138296  0.35647818     0.02880
C627        C  0.95984514  0.23573298  0.37928955    -0.13270
C628        C  0.96008951  0.24054333  0.42451243     0.00380
C629        C  0.99936742  0.26126881  0.44641764    -0.11800
C630        C  0.53833378  0.27364703  0.42498475     0.02870
C631        C  0.53833495  0.26849218  0.37976907    -0.11220
H632        H  0.92944452  0.22000785  0.36193930     0.08460
H633        H  0.99935714  0.26589469  0.48108494     0.05990
H634        H  0.56855286  0.27936676  0.36261364     0.05840
C635        C  0.99772838  0.24676193  0.21641698    -0.06380
C636        C  0.98538220  0.27342987  0.23715239    -0.17500
C637        C  0.98656090  0.27621806  0.28267831     0.10820
C638        C  0.99942964  0.25103702  0.30824866    -0.06300
C639        C  0.51194920  0.22448596  0.28745788    -0.17540
C640        C  0.51088229  0.22179680  0.24190013     0.10850
S641        S  0.97248272  0.31340257  0.30610813    -0.32500
S642        S  0.52620047  0.18561215  0.21826982    -0.32510
H643        H  0.49882246  0.17484307  0.18187320     0.28860
H644        H  0.00098806  0.32461103  0.34162587     0.28860
H645        H  0.97565880  0.29290876  0.21765489     0.19450
H646        H  0.52178019  0.20507282  0.30691820     0.19450
C647        C  0.75049434  0.25241092  0.30842797    -0.06380
C648        C  0.71091500  0.23317916  0.28647742    -0.17500
C649        C  0.70922569  0.23061900  0.24099147     0.10820
C650        C  0.74810735  0.24893426  0.21653624    -0.06300
C651        C  0.78770662  0.26814704  0.23859156    -0.17540
C652        C  0.78935286  0.27034230  0.28412030     0.10850
S653        S  0.65643818  0.20176333  0.21653207    -0.32500
S654        S  0.84202800  0.29751799  0.30902565    -0.32510
H655        H  0.83018750  0.31421682  0.34398268     0.28860
H656        H  0.66882494  0.18425242  0.18275413     0.28860
H657        H  0.68105650  0.21895496  0.30505506     0.19450
H658        H  0.81762438  0.28241513  0.22012008     0.19450
C659        C  0.75073744  0.49892920  0.30822004    -0.06380
C660        C  0.71141863  0.48560919  0.28660804    -0.17500
C661        C  0.70936035  0.48638124  0.24100541     0.10820
C662        C  0.74731908  0.50007905  0.21631717    -0.06300
C663        C  0.78663944  0.01336238  0.23785107    -0.17540
C664        C  0.78870003  0.01253006  0.28347972     0.10850
S665        S  0.65764132  0.47026739  0.21635429    -0.32500
S666        S  0.84026358  0.02778915  0.30804375    -0.32510
H667        H  0.82363000  0.00063064  0.34537652     0.28860
H668        H  0.67381468  0.49684693  0.17860266     0.28860
H669        H  0.68224816  0.47546106  0.30548081     0.19450
H670        H  0.81575530  0.02344609  0.21890518     0.19450
C671        C  0.74696250  0.49906029  0.66826204     0.02880
C672        C  0.72969677  0.45919464  0.64713232    -0.13270
C673        C  0.73343442  0.45879367  0.60170083     0.00380
C674        C  0.75469709  0.99787772  0.57810856    -0.11800
C675        C  0.76879863  0.03734085  0.59808424     0.02870
C676        C  0.76533455  0.03810705  0.64348712    -0.11220
H677        H  0.71383674  0.42901172  0.66588524     0.08460
H678        H  0.75931062  0.99738381  0.54354464     0.05990
H679        H  0.77763192  0.06871339  0.65953093     0.05840
C680        C  0.75086995  0.49981456  0.85636822     0.02880
C681        C  0.77290269  0.03956959  0.87791553    -0.13270
C682        C  0.76812179  0.04042271  0.92317026     0.00380
C683        C  0.74173664  0.50182370  0.94624434    -0.11800
C684        C  0.72299949  0.46208061  0.92605805     0.02870
C685        C  0.72686503  0.46092164  0.88079104    -0.11220
H686        H  0.79191479  0.06952406  0.85942580     0.08460
H687        H  0.73656633  0.50262003  0.98064925     0.05990
H688        H  0.71168238  0.43014469  0.86468120     0.05840
Fe689      Fe  0.86364954  0.13473686  0.50667927     1.65780
Fe690      Fe  0.86361528  0.22956749  0.51790887     1.73250
Fe691      Fe  0.76947712  0.13528744  0.51138233     1.54410
O692        O  0.76368086  0.08764404  0.97108095    -0.81930
O693        O  0.82808944  0.22668372  0.57262080    -0.80230
O694        O  0.82928671  0.10216398  0.95173814    -0.84430
O695        O  0.82049187  0.08475915  0.54747208    -0.79290
O696        O  0.76903382  0.17170900  0.95738850    -0.81060
O697        O  0.90957617  0.22986346  0.55910556    -0.83810
C698        C  0.78731909  0.07649123  0.56987436     0.96960
C699        C  0.78853130  0.08015501  0.94851983     1.04400
O700        O  0.83261371  0.16669369  0.51195612    -1.12790
O701        O  0.90307053  0.23947549  0.96428612    -0.75220
O702        O  0.91022145  0.18070722  0.96567741    -0.78710
O703        O  0.76750193  0.09774828  0.56541974    -0.79400
C704        C  0.92095501  0.21851614  0.95160400     0.95860
O705        O  0.90219045  0.16390368  0.56055183    -0.77360
O706        O  0.82125983  0.23715889  0.97710208    -0.82550
C707        C  0.78726409  0.20827381  0.57503252     0.98480
C708        C  0.78870216  0.21286690  0.95400605     1.04400
O709        O  0.76284030  0.17671501  0.55161309    -0.78190
C710        C  0.92003646  0.20266377  0.57324755     1.02700
C711        C  0.74833440  0.24884814  0.66825048     0.02880
C712        C  0.72635392  0.26608756  0.64405434    -0.13270
C713        C  0.72275482  0.26174970  0.59876054     0.00380
C714        C  0.74093658  0.24039253  0.57804414    -0.11800
C715        C  0.76651035  0.22709451  0.60075501     0.02870
C716        C  0.77030625  0.23125527  0.64613904    -0.11220
H717        H  0.71198577  0.28241173  0.66041234     0.08460
H718        H  0.73610449  0.23513949  0.54354567     0.05990
H719        H  0.78851362  0.21922608  0.66423774     0.05840
C720        C  0.75024433  0.25261994  0.85656645     0.02880
C721        C  0.76729388  0.23051954  0.88093930    -0.13270
C722        C  0.77074431  0.23428039  0.92633437     0.00380
C723        C  0.75725190  0.25998258  0.94682450    -0.11800
C724        C  0.73649402  0.27850064  0.92371088     0.02870
C725        C  0.73312881  0.27513353  0.87827111    -0.11220
H726        H  0.77894340  0.21176680  0.86455353     0.08460
H727        H  0.76171168  0.26459742  0.98142949     0.05990
H728        H  0.71769255  0.29005986  0.85994871     0.05840
Fe729      Fe  0.63393313  0.27042542  0.50752300     1.65780
Fe730      Fe  0.72864126  0.36526184  0.51315540     1.73250
Fe731      Fe  0.63308980  0.36377121  0.51723907     1.54410
O732        O  0.58400698  0.32192933  0.97698241    -0.81930
O733        O  0.73188783  0.39900835  0.56844506    -0.80230
O734        O  0.60087418  0.27396201  0.95281711    -0.84430
O735        O  0.58389326  0.26199212  0.54757860    -0.79290
O736        O  0.66467955  0.40300574  0.96317522    -0.81060
O737        O  0.73173089  0.31928113  0.55331518    -0.83810
C738        C  0.57677538  0.28542170  0.57276091     0.96960
C739        C  0.57761201  0.29166272  0.95180246     1.04400
O740        O  0.66553292  0.33329224  0.51262642    -1.12790
O741        O  0.73396612  0.33579433  0.95800704    -0.75220
O742        O  0.67894518  0.26874882  0.96722870    -0.78710
O743        O  0.59947611  0.32646088  0.57172873    -0.79400
C744        C  0.71454369  0.29590580  0.94955563     0.95860
O745        O  0.66490381  0.26260132  0.56163074    -0.77360
O746        O  0.73173127  0.41433741  0.97291546    -0.82550
C747        C  0.71207623  0.41927723  0.57620715     0.98480
C748        C  0.70491718  0.42321214  0.95450040     1.04400
O749        O  0.67691704  0.41071833  0.55777078    -0.78190
C750        C  0.70490922  0.28297552  0.57088604     1.02700
C751        C  0.99774322  0.24636092  0.66827145     0.02880
C752        C  0.95845720  0.22378848  0.64554744    -0.13270
C753        C  0.95896007  0.21952161  0.60025570     0.00380
C754        C  0.99838889  0.23786780  0.57819299    -0.11800
C755        C  0.53732001  0.26359381  0.59964902     0.02870
C756        C  0.53713285  0.26770760  0.64499217    -0.11220
H757        H  0.92796921  0.20941741  0.66300435     0.08460
H758        H  0.99856549  0.23377555  0.54343663     0.05990
H759        H  0.56729957  0.28634487  0.66217827     0.05840
C760        C  0.99919102  0.25138294  0.85647817     0.02880
C761        C  0.95984513  0.23573296  0.87928954    -0.13270
C762        C  0.96008950  0.24054329  0.92451242     0.00380
C763        C  0.99936741  0.26126877  0.94641764    -0.11800
C764        C  0.53833381  0.27364709  0.92498479     0.02870
C765        C  0.53833500  0.26849226  0.87976910    -0.11220
H766        H  0.92944452  0.22000783  0.86193928     0.08460
H767        H  0.99935713  0.26589464  0.98108494     0.05990
H768        H  0.56855292  0.27936683  0.86261370     0.05840
C769        C  0.99772840  0.24676195  0.71641697    -0.06380
C770        C  0.98538221  0.27342990  0.73715239    -0.17500
C771        C  0.98656091  0.27621807  0.78267831     0.10820
C772        C  0.99942963  0.25103701  0.80824865    -0.06300
C773        C  0.51194927  0.22448606  0.78745788    -0.17540
C774        C  0.51088236  0.22179690  0.74190014     0.10850
S775        S  0.97248274  0.31340258  0.80610815    -0.32500
S776        S  0.52620052  0.18561223  0.71826983    -0.32510
H777        H  0.49882252  0.17484317  0.68187320     0.28860
H778        H  0.00098807  0.32461101  0.84162589     0.28860
H779        H  0.97565883  0.29290879  0.71765489     0.19450
H780        H  0.52178023  0.20507291  0.80691821     0.19450
C781        C  0.75049433  0.25241091  0.80842797    -0.06380
C782        C  0.71091499  0.23317911  0.78647741    -0.17500
C783        C  0.70922569  0.23061897  0.74099146     0.10820
C784        C  0.74810734  0.24893428  0.71653623    -0.06300
C785        C  0.78770661  0.26814710  0.73859155    -0.17540
C786        C  0.78935286  0.27034234  0.78412029     0.10850
S787        S  0.65643818  0.20176325  0.71653205    -0.32500
S788        S  0.84202798  0.29751808  0.80902564    -0.32510
H789        H  0.83018746  0.31421686  0.84398269     0.28860
H790        H  0.66882497  0.18425239  0.68275410     0.28860
H791        H  0.68105649  0.21895488  0.80505505     0.19450
H792        H  0.81762437  0.28241522  0.72012007     0.19450
C793        C  0.75073757  0.49892909  0.80822010    -0.06380
C794        C  0.71141876  0.48560904  0.78660810    -0.17500
C795        C  0.70936049  0.48638110  0.74100546     0.10820
C796        C  0.74731922  0.50007894  0.71631723    -0.06300
C797        C  0.78663923  0.01336241  0.73785101    -0.17540
C798        C  0.78869984  0.01253009  0.78347966     0.10850
S799        S  0.65764146  0.47026722  0.71635435    -0.32500
S800        S  0.84026339  0.02778919  0.80804368    -0.32510
H801        H  0.82362983  0.00063065  0.84537643     0.28860
H802        H  0.67381481  0.49684683  0.67860276     0.28860
H803        H  0.68224828  0.47546090  0.80548086     0.19450
H804        H  0.81575510  0.02344612  0.71890512     0.19450
C805        C  0.74696253  0.99906032  0.16826204     0.02880
C806        C  0.72969680  0.95919467  0.14713233    -0.13270
C807        C  0.73343446  0.95879369  0.10170084     0.00380
C808        C  0.75469710  0.49787773  0.07810855    -0.11800
C809        C  0.76879863  0.53734086  0.09808422     0.02870
C810        C  0.76533457  0.53810709  0.14348710    -0.11220
H811        H  0.71383678  0.92901175  0.16588526     0.08460
H812        H  0.75931062  0.49738380  0.04354465     0.05990
H813        H  0.77763194  0.56871343  0.15953090     0.05840
C814        C  0.75086998  0.99981461  0.35636822     0.02880
C815        C  0.77290272  0.53956959  0.37791554    -0.13270
C816        C  0.76812183  0.54042270  0.42317027     0.00380
C817        C  0.74173666  0.00182371  0.44624434    -0.11800
C818        C  0.72299951  0.96208063  0.42605803     0.02870
C819        C  0.72686505  0.96092168  0.38079102    -0.11220
H820        H  0.79191482  0.56952406  0.35942581     0.08460
H821        H  0.73656634  0.00262003  0.48064927     0.05990
H822        H  0.71168241  0.93014473  0.36468116     0.05840
Fe823      Fe  0.86364953  0.63473685  0.00667922     1.65780
Fe824      Fe  0.86361529  0.72956748  0.01790881     1.73250
Fe825      Fe  0.76947711  0.63528744  0.01138230     1.54410
O826        O  0.76368088  0.58764404  0.47108094    -0.81930
O827        O  0.82808946  0.72668373  0.07262074    -0.80230
O828        O  0.82928674  0.60216395  0.45173819    -0.84430
O829        O  0.82049185  0.58475914  0.04747202    -0.79290
O830        O  0.76903383  0.67170899  0.45738848    -0.81060
O831        O  0.90957617  0.72986344  0.05910550    -0.83810
C832        C  0.78731909  0.57649124  0.06987433     0.96960
C833        C  0.78853134  0.58015499  0.44851985     1.04400
O834        O  0.83261370  0.66669369  0.01195607    -1.12790
O835        O  0.90307052  0.73947545  0.46428607    -0.75220
O836        O  0.91022148  0.68070720  0.46567745    -0.78710
O837        O  0.76750193  0.59774830  0.06541971    -0.79400
C838        C  0.92095502  0.71851610  0.45160399     0.95860
O839        O  0.90219043  0.66390366  0.06055178    -0.77360
O840        O  0.82125984  0.73715888  0.47710204    -0.82550
C841        C  0.78726411  0.70827382  0.07503247     0.98480
C842        C  0.78870216  0.71286688  0.45400601     1.04400
O843        O  0.76284031  0.67671501  0.05161305    -0.78190
C844        C  0.92003645  0.70266375  0.07324749     1.02700
C845        C  0.74833443  0.74884816  0.16825044     0.02880
C846        C  0.72635396  0.76608759  0.14405429    -0.13270
C847        C  0.72275485  0.76174971  0.09876049     0.00380
C848        C  0.74093660  0.74039253  0.07804410    -0.11800
C849        C  0.76651037  0.72709453  0.10075497     0.02870
C850        C  0.77030628  0.73125528  0.14613900    -0.11220
H851        H  0.71198581  0.78241176  0.16041230     0.08460
H852        H  0.73610450  0.73513949  0.04354563     0.05990
H853        H  0.78851365  0.71922609  0.16423769     0.05840
C854        C  0.75024435  0.75261994  0.35656641     0.02880
C855        C  0.76729389  0.73051953  0.38093927    -0.13270
C856        C  0.77074431  0.73428037  0.42633434     0.00380
C857        C  0.75725190  0.75998257  0.44682446    -0.11800
C858        C  0.73649404  0.77850064  0.42371084     0.02870
C859        C  0.73312883  0.77513353  0.37827107    -0.11220
H860        H  0.77894340  0.71176679  0.36455349     0.08460
H861        H  0.76171169  0.76459740  0.48142945     0.05990
H862        H  0.71769259  0.79005988  0.35994867     0.05840
Fe863      Fe  0.63393315  0.77042544  0.00752295     1.65780
Fe864      Fe  0.72864129  0.86526186  0.01315538     1.73250
Fe865      Fe  0.63308981  0.86377122  0.01723912     1.54410
O866        O  0.58400698  0.82192933  0.47698235    -0.81930
O867        O  0.73188789  0.89900839  0.06844503    -0.80230
O868        O  0.60087418  0.77396200  0.45281706    -0.84430
O869        O  0.58389328  0.76199212  0.04757858    -0.79290
O870        O  0.66467955  0.90300574  0.46317518    -0.81060
O871        O  0.73173091  0.81928116  0.05331517    -0.83810
C872        C  0.57677540  0.78542167  0.07276091     0.96960
C873        C  0.57761201  0.79166271  0.45180241     1.04400
O874        O  0.66553294  0.83329225  0.01262642    -1.12790
O875        O  0.73396614  0.83579433  0.45800701    -0.75220
O876        O  0.67894519  0.76874882  0.46722864    -0.78710
O877        O  0.59947613  0.82646085  0.07172877    -0.79400
C878        C  0.71454370  0.79590580  0.44955559     0.95860
O879        O  0.66490384  0.76260131  0.06163066    -0.77360
O880        O  0.73173128  0.91433741  0.47291542    -0.82550
C881        C  0.71207626  0.91927724  0.07620717     0.98480
C882        C  0.70491719  0.92321215  0.45450036     1.04400
O883        O  0.67691704  0.91071831  0.05777085    -0.78190
C884        C  0.70490925  0.78297553  0.07088599     1.02700
C885        C  0.99774317  0.74636088  0.16827141     0.02880
C886        C  0.95845715  0.72378844  0.14554739    -0.13270
C887        C  0.95896004  0.71952159  0.10025566     0.00380
C888        C  0.99838886  0.73786778  0.07819296    -0.11800
C889        C  0.53732003  0.76359375  0.09964901     0.02870
C890        C  0.53713286  0.76770754  0.14499216    -0.11220
H891        H  0.92796917  0.70941737  0.16300430     0.08460
H892        H  0.99856548  0.73377553  0.04343660     0.05990
H893        H  0.56729956  0.78634481  0.16217827     0.05840
C894        C  0.99919101  0.75138287  0.35647814     0.02880
C895        C  0.95984513  0.73573289  0.37928953    -0.13270
C896        C  0.96008951  0.74054324  0.42451241     0.00380
C897        C  0.99936742  0.76126873  0.44641761    -0.11800
C898        C  0.53833380  0.77364707  0.42498475     0.02870
C899        C  0.53833498  0.76849223  0.37976907    -0.11220
H900        H  0.92944451  0.72000776  0.36193928     0.08460
H901        H  0.99935716  0.76589462  0.48108490     0.05990
H902        H  0.56855289  0.77936680  0.36261365     0.05840
C903        C  0.99772834  0.74676189  0.21641694    -0.06380
C904        C  0.98538214  0.77342982  0.23715237    -0.17500
C905        C  0.98656085  0.77621799  0.28267830     0.10820
C906        C  0.99942960  0.75103695  0.30824862    -0.06300
C907        C  0.51194924  0.72448601  0.28745787    -0.17540
C908        C  0.51088233  0.72179684  0.24190012     0.10850
S909        S  0.97248265  0.81340247  0.30610815    -0.32500
S910        S  0.52620051  0.68561217  0.21826983    -0.32510
H911        H  0.49882250  0.67484310  0.18187320     0.28860
H912        H  0.00098800  0.82461093  0.34162588     0.28860
H913        H  0.97565874  0.79290871  0.21765489     0.19450
H914        H  0.52178020  0.70507286  0.30691820     0.19450
C915        C  0.75049436  0.75241092  0.30842793    -0.06380
C916        C  0.71091502  0.73317915  0.28647737    -0.17500
C917        C  0.70922571  0.73061901  0.24099141     0.10820
C918        C  0.74810737  0.74893430  0.21653619    -0.06300
C919        C  0.78770664  0.76814709  0.23859151    -0.17540
C920        C  0.78935288  0.77034232  0.28412025     0.10850
S921        S  0.65643820  0.70176332  0.21653201    -0.32500
S922        S  0.84202801  0.79751803  0.30902561    -0.32510
H923        H  0.83018750  0.81421683  0.34398266     0.28860
H924        H  0.66882498  0.68425244  0.18275406     0.28860
H925        H  0.68105652  0.71895493  0.30505501     0.19450
H926        H  0.81762440  0.78241520  0.22012004     0.19450
C927        C  0.75073761  0.99892916  0.30822010    -0.06380
C928        C  0.71141880  0.98560913  0.28660809    -0.17500
C929        C  0.70936053  0.98638118  0.24100546     0.10820
C930        C  0.74731926  0.00007899  0.21631722    -0.06300
C931        C  0.78663926  0.51336244  0.23785101    -0.17540
C932        C  0.78869986  0.51253010  0.28347965     0.10850
S933        S  0.65764150  0.97026732  0.21635434    -0.32500
S934        S  0.84026340  0.52778917  0.30804367    -0.32510
H935        H  0.82362983  0.50063061  0.34537641     0.28860
H936        H  0.67381486  0.99684692  0.17860274     0.28860
H937        H  0.68224832  0.97546100  0.30548086     0.19450
H938        H  0.81575512  0.52344613  0.21890512     0.19450
C939        C  0.74696234  0.99906031  0.66826199     0.02880
C940        C  0.72969667  0.95919466  0.64713228    -0.13270
C941        C  0.73343443  0.95879368  0.60170082     0.00380
C942        C  0.75469701  0.49787772  0.57810868    -0.11800
C943        C  0.76879864  0.53734084  0.59808428     0.02870
C944        C  0.76533468  0.53810704  0.64348720    -0.11220
H945        H  0.71383661  0.92901174  0.66588522     0.08460
H946        H  0.75931053  0.49738381  0.54354408     0.05990
H947        H  0.77763210  0.56871337  0.65953101     0.05840
C948        C  0.75086982  0.99981462  0.85636817     0.02880
C949        C  0.77290278  0.53956954  0.87791558    -0.13270
C950        C  0.76812180  0.54042269  0.92317027     0.00380
C951        C  0.74173669  0.00182371  0.94624422    -0.11800
C952        C  0.72299948  0.96208064  0.92605802     0.02870
C953        C  0.72686492  0.96092168  0.88079097    -0.11220
H954        H  0.79191491  0.56952400  0.85942583     0.08460
H955        H  0.73656637  0.00262004  0.98064978     0.05990
H956        H  0.71168225  0.93014475  0.86468112     0.05840
Fe957      Fe  0.86364955  0.63473683  0.50667931     1.65780
Fe958      Fe  0.86361529  0.72956746  0.51790881     1.73250
Fe959      Fe  0.76947712  0.63528741  0.51138233     1.54410
O960        O  0.76368086  0.58764404  0.97108093    -0.81930
O961        O  0.82808946  0.72668373  0.57262074    -0.80230
O962        O  0.82928671  0.60216401  0.95173809    -0.84430
O963        O  0.82049189  0.58475914  0.54747214    -0.79290
O964        O  0.76903383  0.67170902  0.95738845    -0.81060
O965        O  0.90957618  0.72986346  0.55910552    -0.83810
C966        C  0.78731910  0.57649122  0.56987441     0.96960
C967        C  0.78853130  0.58015501  0.94851982     1.04400
O968        O  0.83261371  0.66669366  0.51195611    -1.12790
O969        O  0.90307053  0.73947551  0.96428606    -0.75220
O970        O  0.91022146  0.68070724  0.96567737    -0.78710
O971        O  0.76750191  0.59774825  0.56541974    -0.79400
C972        C  0.92095502  0.71851616  0.95160396     0.95860
O973        O  0.90219044  0.66390368  0.56055187    -0.77360
O974        O  0.82125983  0.73715891  0.97710204    -0.82550
C975        C  0.78726411  0.70827380  0.57503249     0.98480
C976        C  0.78870216  0.71286692  0.95400601     1.04400
O977        O  0.76284031  0.67671497  0.55161309    -0.78190
C978        C  0.92003647  0.70266378  0.57324754     1.02700
C979        C  0.74833441  0.74884812  0.66825045     0.02880
C980        C  0.72635395  0.76608755  0.64405430    -0.13270
C981        C  0.72275485  0.76174969  0.59876051     0.00380
C982        C  0.74093660  0.74039251  0.57804411    -0.11800
C983        C  0.76651036  0.72709450  0.60075498     0.02870
C984        C  0.77030626  0.73125524  0.64613901    -0.11220
H985        H  0.71198580  0.78241173  0.66041231     0.08460
H986        H  0.73610450  0.73513947  0.54354564     0.05990
H987        H  0.78851363  0.71922605  0.66423771     0.05840
C988        C  0.75024434  0.75261996  0.85656641     0.02880
C989        C  0.76729388  0.73051955  0.88093927    -0.13270
C990        C  0.77074431  0.73428042  0.92633434     0.00380
C991        C  0.75725192  0.75998262  0.94682446    -0.11800
C992        C  0.73649405  0.77850069  0.92371083     0.02870
C993        C  0.73312883  0.77513357  0.87827107    -0.11220
H994        H  0.77894338  0.71176680  0.86455350     0.08460
H995        H  0.76171171  0.76459747  0.98142944     0.05990
H996        H  0.71769259  0.79005991  0.85994866     0.05840
Fe997      Fe  0.63393314  0.77042540  0.50752296     1.65780
Fe998      Fe  0.72864128  0.86526183  0.51315538     1.73250
Fe999      Fe  0.63308981  0.86377119  0.51723912     1.54410
O1000       O  0.58400698  0.82192936  0.97698238    -0.81930
O1001       O  0.73188790  0.89900839  0.56844500    -0.80230
O1002       O  0.60087418  0.77396206  0.95281705    -0.84430
O1003       O  0.58389328  0.76199208  0.54757859    -0.79290
O1004       O  0.66467954  0.90300575  0.96317516    -0.81060
O1005       O  0.73173091  0.81928114  0.55331517    -0.83810
C1006       C  0.57677538  0.78542163  0.57276091     0.96960
C1007       C  0.57761200  0.79166276  0.95180242     1.04400
O1008       O  0.66553294  0.83329222  0.51262642    -1.12790
O1009       O  0.73396615  0.83579438  0.95800701    -0.75220
O1010       O  0.67894519  0.76874887  0.96722862    -0.78710
O1011       O  0.59947611  0.82646082  0.57172876    -0.79400
C1012       C  0.71454371  0.79590585  0.94955558     0.95860
O1013       O  0.66490384  0.76260128  0.56163068    -0.77360
O1014       O  0.73173128  0.91433745  0.97291543    -0.82550
C1015       C  0.71207626  0.91927723  0.57620715     0.98480
C1016       C  0.70491718  0.92321216  0.95450034     1.04400
O1017       O  0.67691702  0.91071827  0.55777086    -0.78190
C1018       C  0.70490925  0.78297550  0.57088601     1.02700
C1019       C  0.99774324  0.74636097  0.66827142     0.02880
C1020       C  0.95845722  0.72378851  0.64554743    -0.13270
C1021       C  0.95896008  0.71952164  0.60025569     0.00380
C1022       C  0.99838889  0.73786784  0.57819297    -0.11800
C1023       C  0.53732001  0.76359372  0.59964902     0.02870
C1024       C  0.53713284  0.76770751  0.64499216    -0.11220
H1025       H  0.92796924  0.70941744  0.66300435     0.08460
H1026       H  0.99856549  0.73377557  0.54343661     0.05990
H1027       H  0.56729955  0.78634479  0.66217827     0.05840
C1028       C  0.99919106  0.75138296  0.85647815     0.02880
C1029       C  0.95984517  0.73573298  0.87928951    -0.13270
C1030       C  0.96008952  0.74054331  0.92451239     0.00380
C1031       C  0.99936742  0.76126878  0.94641761    -0.11800
C1032       C  0.53833379  0.77364712  0.92498475     0.02870
C1033       C  0.53833497  0.76849228  0.87976907    -0.11220
H1034       H  0.92944455  0.72000786  0.86193924     0.08460
H1035       H  0.99935714  0.76589466  0.98108492     0.05990
H1036       H  0.56855288  0.77936684  0.86261366     0.05840
C1037       C  0.99772844  0.74676200  0.71641695    -0.06380
C1038       C  0.98538226  0.77342994  0.73715237    -0.17500
C1039       C  0.98656096  0.77621811  0.78267830     0.10820
C1040       C  0.99942969  0.75103705  0.80824863    -0.06300
C1041       C  0.51194924  0.72448604  0.78745789    -0.17540
C1042       C  0.51088233  0.72179686  0.74190014     0.10850
S1043       S  0.97248279  0.81340262  0.80610814    -0.32500
S1044       S  0.52620052  0.68561219  0.71826986    -0.32510
H1045       H  0.49882251  0.67484310  0.68187323     0.28860
H1046       H  0.00098813  0.82461105  0.84162588     0.28860
H1047       H  0.97565887  0.79290884  0.71765489     0.19450
H1048       H  0.52178021  0.70507291  0.80691823     0.19450
C1049       C  0.75049434  0.75241092  0.80842793    -0.06380
C1050       C  0.71091500  0.73317916  0.78647738    -0.17500
C1051       C  0.70922570  0.73061900  0.74099142     0.10820
C1052       C  0.74810736  0.74893427  0.71653620    -0.06300
C1053       C  0.78770662  0.76814705  0.73859152    -0.17540
C1054       C  0.78935287  0.77034230  0.78412026     0.10850
S1055       S  0.65643818  0.70176332  0.71653202    -0.32500
S1056       S  0.84202800  0.79751800  0.80902561    -0.32510
H1057       H  0.83018750  0.81421682  0.84398265     0.28860
H1058       H  0.66882495  0.68425242  0.68275408     0.28860
H1059       H  0.68105651  0.71895496  0.80505501     0.19450
H1060       H  0.81762438  0.78241514  0.72012004     0.19450
C1061       C  0.75073742  0.99892917  0.80822005    -0.06380
C1062       C  0.71141860  0.98560913  0.78660805    -0.17500
C1063       C  0.70936032  0.98638117  0.74100541     0.10820
C1064       C  0.74731905  0.00007899  0.71631717    -0.06300
C1065       C  0.78663941  0.51336235  0.73785107    -0.17540
C1066       C  0.78870000  0.51253002  0.78347972     0.10850
S1067       S  0.65764128  0.97026728  0.71635430    -0.32500
S1068       S  0.84026355  0.52778913  0.80804375    -0.32510
H1069       H  0.82362999  0.50063062  0.84537652     0.28860
H1070       H  0.67381463  0.99684683  0.67860266     0.28860
H1071       H  0.68224812  0.97546099  0.80548082     0.19450
H1072       H  0.81575528  0.52344607  0.71890518     0.19450
loop_ 
_geom_bond_atom_site_label_1 
_geom_bond_atom_site_label_2 
_geom_bond_distance 
_geom_bond_site_symmetry_2 
_ccdc_geom_bond_type 
C1            C2   1.411       .  A
C1          C274   1.410       .  A
C1          C126   1.473       .  S
C2            C3   1.401       .  A
C2            H7   1.084       .  S
C3          C272   1.394       .  A
C3           C77   1.469       .  S
C4            C5   1.395   1_565  A
C4          C271   1.394       .  A
C4            H8   1.075       .  S
C5            C6   1.400       .  A
C5           C28   1.469       .  S
C6          C269   1.410   1_545  A
C6            H9   1.084       .  S
C10          C15   1.410       .  A
C10         C279   1.413       .  A
C10         C123   1.476       .  S
C11          C12   1.401       .  A
C11         C278   1.413   1_545  A
C11          H16   1.084       .  S
C12         C281   1.396       .  A
C12          C29   1.471       .  S
C13          C14   1.391       .  A
C13         C280   1.396       .  A
C13          H17   1.075       .  S
C14          C15   1.399       .  A
C14          C78   1.466       .  S
C15          H18   1.084       .  S
Fe19         O35   2.080       .  S
Fe19         O25   2.071       .  S
Fe19        O166   2.059   1_554  S
Fe19        O158   2.082   1_554  S
Fe19         O30   1.958       .  S
Fe20         O23   2.081       .  S
Fe20         O27   2.058       .  S
Fe20        O165   2.080   1_554  S
Fe20        O170   2.069   1_554  S
Fe20         O30   1.958       .  S
Fe21         O39   2.054       .  S
Fe21         O33   2.080       .  S
Fe21        O160   2.080   1_554  S
Fe21        O156   2.054   1_554  S
Fe21         O30   1.955       .  S
O22        Fe155   2.054       .  S
O22          C29   1.264       .  A
O23          C37   1.268       .  A
O24        Fe153   2.082       .  S
O24          C29   1.268       .  A
O25          C28   1.272       .  A
O26        Fe155   2.080       .  S
O26          C38   1.275       .  A
O27          C40   1.267       .  A
C28          O33   1.275       .  A
O31        Fe154   2.080       .  S
O31          C34   1.272       .  A
O32        Fe153   2.059       .  S
O32          C34   1.268       .  A
C34          C92   1.467       .  S
O35          C40   1.271       .  A
O36        Fe154   2.069       .  S
O36          C38   1.272       .  A
C37          C45   1.470       .  S
C37          O39   1.264       .  A
C38          C52   1.469       .  S
C40          C83   1.467       .  S
C41          C42   1.411       .  A
C41          C46   1.413       .  A
C41         C114   1.479       .  S
C42          C43   1.398       .  A
C42          H47   1.084       .  S
C43          C44   1.391       .  A
C43          C80   1.465       .  S
C44          C45   1.396       .  A
C44          H48   1.076       .  S
C45          C46   1.400       .  A
C46          H49   1.084       .  S
C50          C51   1.411       .  A
C50          C55   1.411       .  A
C50         C111   1.475       .  S
C51          C52   1.399       .  A
C51          H56   1.084       .  S
C52          C53   1.396       .  A
C53          C54   1.394       .  A
C53          H57   1.075       .  S
C54          C55   1.399       .  A
C54          C74   1.468       .  S
C55          H58   1.084       .  S
Fe59         O75   2.073       .  S
Fe59         O65   2.068       .  S
Fe59        O206   2.062   1_554  S
Fe59        O198   2.078   1_554  S
Fe59         O70   1.955       .  S
Fe60         O63   2.074       .  S
Fe60         O67   2.070       .  S
Fe60        O205   2.074   1_554  S
Fe60        O210   2.071   1_554  S
Fe60         O70   1.954       .  S
Fe61         O79   2.064       .  S
Fe61         O73   2.079       .  S
Fe61        O200   2.075   1_554  S
Fe61        O196   2.067   1_554  S
Fe61         O70   1.954       .  S
O62        Fe195   2.067       .  S
O62          C69   1.269       .  A
O63          C77   1.267       .  A
O64        Fe193   2.078       .  S
O64          C69   1.271       .  A
O65          C68   1.269       .  A
O66        Fe195   2.075       .  S
O66          C78   1.273       .  A
O67          C80   1.272       .  A
C68          C85   1.471       .  S
C68          O73   1.271       .  A
C69          C94   1.471       .  S
O71        Fe194   2.074       .  S
O71          C74   1.267       .  A
O72        Fe193   2.062       .  S
O72          C74   1.266       .  A
O75          C80   1.272       .  A
O76        Fe194   2.071       .  S
O76          C78   1.273       .  A
C77          O79   1.267       .  A
C81          C82   1.410       .  A
C81         C622   1.410       .  A
C81          C99   1.475       .  S
C82          C83   1.401       .  A
C82          H87   1.084       .  S
C83          C84   1.394       .  A
C84         C621   1.397       .  A
C84          H88   1.079       .  S
C85          C86   1.401       .  A
C85         C620   1.397   1_455  A
C86         C617   1.410   1_455  A
C86          H89   1.084       .  S
C90          C91   1.411       .  A
C90         C631   1.411       .  A
C90         C102   1.478       .  S
C91          C92   1.400       .  A
C91          H96   1.084       .  S
C92          C93   1.393       .  A
C93         C630   1.397       .  A
C93          H97   1.079       .  S
C94          C95   1.402       .  A
C94         C629   1.397   1_455  A
C95         C626   1.411   1_455  A
C95          H98   1.084       .  S
C99         C100   1.401       .  A
C99         C640   1.413       .  A
C100        C101   1.400       .  A
C100        H109   1.084       .  S
C101        C102   1.414       .  A
C101        S105   1.805       .  S
C102        C639   1.402       .  A
C103        C104   1.400       .  A
C103        C638   1.402   1_455  A
C103        H110   1.084       .  S
C104        C635   1.413   1_455  A
C104        S106   1.805       .  S
S105        H108   1.406       .  S
S106        H107   1.406   1_455  S
C111        C112   1.401       .  A
C111        C116   1.414       .  A
C112        C113   1.398       .  A
C112        H121   1.084       .  S
C113        C114   1.416       .  A
C113        S117   1.805       .  S
C114        C115   1.403       .  A
C115        C116   1.398       .  A
C115        H122   1.084       .  S
C116        S118   1.805       .  S
S117        H120   1.407       .  S
S118        H119   1.406       .  S
C123        C124   1.404       .  A
C123        C396   1.412       .  A
C124        C125   1.398       .  A
C124        H133   1.084       .  S
C125        C126   1.410       .  A
C125        S129   1.804       .  S
C126        C395   1.403       .  A
C127        C128   1.399       .  A
C127        C394   1.403       .  A
C127        H134   1.084       .  S
C128        C391   1.412   1_545  A
C128        S130   1.804       .  S
S129        H132   1.406       .  S
S130        H131   1.406       .  S
C135        C136   1.411       .  A
C135        C408   1.410       .  A
C135        C260   1.473       .  S
C136        C137   1.401       .  A
C136        H141   1.084       .  S
C137        C406   1.394       .  A
C137        C211   1.469       .  S
C138        C405   1.394       .  A
C138        C139   1.395   1_565  A
C138        H142   1.075       .  S
C139        C140   1.400       .  A
C139        C162   1.469       .  S
C140        C403   1.410   1_545  A
C140        H143   1.084       .  S
C144        C413   1.413       .  A
C144        C149   1.410       .  A
C144        C257   1.476       .  S
C145        C412   1.413   1_545  A
C145        C146   1.401       .  A
C145        H150   1.084       .  S
C146        C415   1.396       .  A
C146        C163   1.471       .  S
C147        C414   1.396       .  A
C147        C148   1.391       .  A
C147        H151   1.075       .  S
C148        C149   1.399       .  A
C148        C212   1.466       .  S
C149        H152   1.084       .  S
Fe153       O169   2.080       .  S
Fe153       O159   2.071       .  S
Fe153       O164   1.958       .  S
Fe154       O157   2.081       .  S
Fe154       O161   2.058       .  S
Fe154       O164   1.958       .  S
Fe155       O173   2.054       .  S
Fe155       O167   2.080       .  S
Fe155       O164   1.955       .  S
O156        C163   1.264       .  A
O157        C171   1.268       .  A
O158        C163   1.268       .  A
O159        C162   1.272       .  A
O160        C172   1.275       .  A
O161        C174   1.267       .  A
C162        O167   1.275       .  A
O165        C168   1.272       .  A
O166        C168   1.268       .  A
C168        C226   1.467       .  S
O169        C174   1.271       .  A
O170        C172   1.272       .  A
C171        C179   1.470       .  S
C171        O173   1.264       .  A
C172        C186   1.469       .  S
C174        C217   1.467       .  S
C175        C176   1.411       .  A
C175        C180   1.413       .  A
C175        C248   1.479       .  S
C176        C177   1.398       .  A
C176        H181   1.084       .  S
C177        C178   1.391       .  A
C177        C214   1.465       .  S
C178        C179   1.396       .  A
C178        H182   1.076       .  S
C179        C180   1.400       .  A
C180        H183   1.084       .  S
C184        C185   1.411       .  A
C184        C189   1.411       .  A
C184        C245   1.475       .  S
C185        C186   1.399       .  A
C185        H190   1.084       .  S
C186        C187   1.396       .  A
C187        C188   1.394       .  A
C187        H191   1.075       .  S
C188        C189   1.399       .  A
C188        C208   1.468       .  S
C189        H192   1.084       .  S
Fe193       O209   2.073       .  S
Fe193       O199   2.068       .  S
Fe193       O204   1.955       .  S
Fe194       O197   2.074       .  S
Fe194       O201   2.070       .  S
Fe194       O204   1.954       .  S
Fe195       O213   2.064       .  S
Fe195       O207   2.079       .  S
Fe195       O204   1.954       .  S
O196        C203   1.269       .  A
O197        C211   1.267       .  A
O198        C203   1.271       .  A
O199        C202   1.269       .  A
O200        C212   1.273       .  A
O201        C214   1.272       .  A
C202        C219   1.471       .  S
C202        O207   1.271       .  A
C203        C228   1.471       .  S
O205        C208   1.267       .  A
O206        C208   1.266       .  A
O209        C214   1.272       .  A
O210        C212   1.273       .  A
C211        O213   1.267       .  A
C215        C216   1.410       .  A
C215        C756   1.410       .  A
C215        C233   1.475       .  S
C216        C217   1.401       .  A
C216        H221   1.084       .  S
C217        C218   1.394       .  A
C218        C755   1.397       .  A
C218        H222   1.079       .  S
C219        C754   1.397   1_455  A
C219        C220   1.401       .  A
C220        C751   1.410   1_455  A
C220        H223   1.084       .  S
C224        C225   1.411       .  A
C224        C765   1.411       .  A
C224        C236   1.478       .  S
C225        C226   1.400       .  A
C225        H230   1.084       .  S
C226        C227   1.393       .  A
C227        C764   1.397       .  A
C227        H231   1.079       .  S
C228        C763   1.397   1_455  A
C228        C229   1.402       .  A
C229        C760   1.411   1_455  A
C229        H232   1.084       .  S
C233        C234   1.401       .  A
C233        C774   1.413       .  A
C234        C235   1.400       .  A
C234        H243   1.084       .  S
C235        C236   1.414       .  A
C235        S239   1.805       .  S
C236        C773   1.402       .  A
C237        C772   1.402   1_455  A
C237        C238   1.400       .  A
C237        H244   1.084       .  S
C238        C769   1.413   1_455  A
C238        S240   1.805       .  S
S239        H242   1.406       .  S
S240        H241   1.406   1_455  S
C245        C246   1.401       .  A
C245        C250   1.414       .  A
C246        C247   1.398       .  A
C246        H255   1.084       .  S
C247        C248   1.416       .  A
C247        S251   1.805       .  S
C248        C249   1.403       .  A
C249        C250   1.398       .  A
C249        H256   1.084       .  S
C250        S252   1.805       .  S
S251        H254   1.407       .  S
S252        H253   1.406       .  S
C257        C258   1.404       .  A
C257        C530   1.412       .  A
C258        C259   1.398       .  A
C258        H267   1.084       .  S
C259        C260   1.410       .  A
C259        S263   1.804       .  S
C260        C529   1.403       .  A
C261        C528   1.403       .  A
C261        C262   1.399       .  A
C261        H268   1.084       .  S
C262        C525   1.412   1_545  A
C262        S264   1.804       .  S
S263        H266   1.406       .  S
S264        H265   1.406       .  S
C269        C270   1.411       .  A
C269        C394   1.473   1_565  S
C270        C271   1.401       .  A
C270        H275   1.084       .  S
C271        C345   1.469       .  S
C272        C273   1.395       .  A
C272        H276   1.075       .  S
C273        C274   1.400       .  A
C273        C296   1.469       .  S
C274        H277   1.084       .  S
C278        C283   1.410       .  A
C278        C391   1.476       .  S
C279        C280   1.401       .  A
C279        H284   1.084       .  S
C280        C297   1.471       .  S
C281        C282   1.391   1_545  A
C281        H285   1.075       .  S
C282        C283   1.399       .  A
C282        C346   1.466       .  S
C283        H286   1.084       .  S
Fe287       O303   2.080       .  S
Fe287       O293   2.071       .  S
Fe287       O434   2.059   1_554  S
Fe287       O426   2.082   1_554  S
Fe287       O298   1.958       .  S
Fe288       O291   2.081       .  S
Fe288       O295   2.058       .  S
Fe288       O433   2.080   1_554  S
Fe288       O438   2.069   1_554  S
Fe288       O298   1.958       .  S
Fe289       O307   2.054       .  S
Fe289       O428   2.080   1_554  S
Fe289       O301   2.080       .  S
Fe289       O424   2.054   1_554  S
Fe289       O298   1.955       .  S
O290       Fe423   2.054       .  S
O290        C297   1.264       .  A
O291        C305   1.268       .  A
O292       Fe421   2.082       .  S
O292        C297   1.268       .  A
O293        C296   1.272       .  A
O294       Fe423   2.080       .  S
O294        C306   1.275       .  A
O295        C308   1.267       .  A
C296        O301   1.275       .  A
O299       Fe422   2.080       .  S
O299        C302   1.272       .  A
O300       Fe421   2.059       .  S
O300        C302   1.268       .  A
C302        C360   1.467       .  S
O303        C308   1.271       .  A
O304       Fe422   2.069       .  S
O304        C306   1.272       .  A
C305        C313   1.470       .  S
C305        O307   1.264       .  A
C306        C320   1.469       .  S
C308        C351   1.467       .  S
C309        C310   1.411       .  A
C309        C314   1.413       .  A
C309        C382   1.479       .  S
C310        C311   1.398       .  A
C310        H315   1.084       .  S
C311        C312   1.391       .  A
C311        C348   1.465       .  S
C312        C313   1.396       .  A
C312        H316   1.076       .  S
C313        C314   1.400       .  A
C314        H317   1.084       .  S
C318        C319   1.411       .  A
C318        C323   1.411       .  A
C318        C379   1.475       .  S
C319        C320   1.399       .  A
C319        H324   1.084       .  S
C320        C321   1.396       .  A
C321        C322   1.394       .  A
C321        H325   1.075       .  S
C322        C323   1.399       .  A
C322        C342   1.468       .  S
C323        H326   1.084       .  S
Fe327       O343   2.073       .  S
Fe327       O333   2.068       .  S
Fe327       O474   2.062   1_554  S
Fe327       O466   2.078   1_554  S
Fe327       O338   1.955       .  S
Fe328       O331   2.074       .  S
Fe328       O335   2.070       .  S
Fe328       O473   2.074   1_554  S
Fe328       O478   2.071   1_554  S
Fe328       O338   1.954       .  S
Fe329       O347   2.064       .  S
Fe329       O468   2.075   1_554  S
Fe329       O341   2.079       .  S
Fe329       O464   2.067   1_554  S
Fe329       O338   1.954       .  S
O330       Fe463   2.067       .  S
O330        C337   1.269       .  A
O331        C345   1.267       .  A
O332       Fe461   2.078       .  S
O332        C337   1.271       .  A
O333        C336   1.269       .  A
O334       Fe463   2.075       .  S
O334        C346   1.273       .  A
O335        C348   1.272       .  A
C336        C353   1.471       .  S
C336        O341   1.271       .  A
C337        C362   1.471       .  S
O339       Fe462   2.074       .  S
O339        C342   1.267       .  A
O340       Fe461   2.062       .  S
O340        C342   1.266       .  A
O343        C348   1.272       .  A
O344       Fe462   2.071       .  S
O344        C346   1.273       .  A
C345        O347   1.267       .  A
C349        C350   1.410       .  A
C349        C890   1.410       .  A
C349        C367   1.475       .  S
C350        C351   1.401       .  A
C350        H355   1.084       .  S
C351        C352   1.394       .  A
C352        C889   1.397       .  A
C352        H356   1.079       .  S
C353        C888   1.397   1_455  A
C353        C354   1.401       .  A
C354        C885   1.410   1_455  A
C354        H357   1.084       .  S
C358        C359   1.411       .  A
C358        C899   1.411       .  A
C358        C370   1.478       .  S
C359        C360   1.400       .  A
C359        H364   1.084       .  S
C360        C361   1.393       .  A
C361        C898   1.397       .  A
C361        H365   1.079       .  S
C362        C897   1.397   1_455  A
C362        C363   1.402       .  A
C363        C894   1.411   1_455  A
C363        H366   1.084       .  S
C367        C368   1.401       .  A
C367        C908   1.413       .  A
C368        C369   1.400       .  A
C368        H377   1.084       .  S
C369        C370   1.414       .  A
C369        S373   1.805       .  S
C370        C907   1.402       .  A
C371        C906   1.402   1_455  A
C371        C372   1.400       .  A
C371        H378   1.084       .  S
C372        C903   1.413   1_455  A
C372        S374   1.805       .  S
S373        H376   1.406       .  S
S374        H375   1.406   1_455  S
C379        C380   1.401       .  A
C379        C384   1.414       .  A
C380        C381   1.398       .  A
C380        H389   1.084       .  S
C381        C382   1.416       .  A
C381        S385   1.805       .  S
C382        C383   1.403       .  A
C383        C384   1.398       .  A
C383        H390   1.084       .  S
C384        S386   1.805       .  S
S385        H388   1.407       .  S
S386        H387   1.406       .  S
C391        C392   1.404       .  A
C392        C393   1.398       .  A
C392        H401   1.084       .  S
C393        C394   1.410   1_565  A
C393        S397   1.804       .  S
C395        C396   1.399       .  A
C395        H402   1.084       .  S
C396        S398   1.804       .  S
S397        H400   1.406       .  S
S398        H399   1.406       .  S
C403        C404   1.411       .  A
C403        C528   1.473   1_565  S
C404        C405   1.401       .  A
C404        H409   1.084       .  S
C405        C479   1.469       .  S
C406        C407   1.395       .  A
C406        H410   1.075       .  S
C407        C408   1.400       .  A
C407        C430   1.469       .  S
C408        H411   1.084       .  S
C412        C417   1.410       .  A
C412        C525   1.476       .  S
C413        C414   1.401       .  A
C413        H418   1.084       .  S
C414        C431   1.471       .  S
C415        C416   1.391   1_545  A
C415        H419   1.075       .  S
C416        C417   1.399       .  A
C416        C480   1.466       .  S
C417        H420   1.084       .  S
Fe421       O437   2.080       .  S
Fe421       O427   2.071       .  S
Fe421       O432   1.958       .  S
Fe422       O425   2.081       .  S
Fe422       O429   2.058       .  S
Fe422       O432   1.958       .  S
Fe423       O441   2.054       .  S
Fe423       O435   2.080       .  S
Fe423       O432   1.955       .  S
O424        C431   1.264       .  A
O425        C439   1.268       .  A
O426        C431   1.268       .  A
O427        C430   1.272       .  A
O428        C440   1.275       .  A
O429        C442   1.267       .  A
C430        O435   1.275       .  A
O433        C436   1.272       .  A
O434        C436   1.268       .  A
C436        C494   1.467       .  S
O437        C442   1.271       .  A
O438        C440   1.272       .  A
C439        C447   1.470       .  S
C439        O441   1.264       .  A
C440        C454   1.469       .  S
C442        C485   1.467       .  S
C443        C444   1.411       .  A
C443        C448   1.413       .  A
C443        C516   1.479       .  S
C444        C445   1.398       .  A
C444        H449   1.084       .  S
C445        C446   1.391       .  A
C445        C482   1.465       .  S
C446        C447   1.396       .  A
C446        H450   1.076       .  S
C447        C448   1.400       .  A
C448        H451   1.084       .  S
C452        C453   1.411       .  A
C452        C457   1.411       .  A
C452        C513   1.475       .  S
C453        C454   1.399       .  A
C453        H458   1.084       .  S
C454        C455   1.396       .  A
C455        C456   1.394       .  A
C455        H459   1.075       .  S
C456        C457   1.399       .  A
C456        C476   1.468       .  S
C457        H460   1.084       .  S
Fe461       O477   2.073       .  S
Fe461       O467   2.068       .  S
Fe461       O472   1.955       .  S
Fe462       O465   2.074       .  S
Fe462       O469   2.070       .  S
Fe462       O472   1.954       .  S
Fe463       O481   2.064       .  S
Fe463       O475   2.079       .  S
Fe463       O472   1.954       .  S
O464        C471   1.269       .  A
O465        C479   1.267       .  A
O466        C471   1.271       .  A
O467        C470   1.269       .  A
O468        C480   1.273       .  A
O469        C482   1.272       .  A
C470        C487   1.471       .  S
C470        O475   1.271       .  A
C471        C496   1.471       .  S
O473        C476   1.267       .  A
O474        C476   1.266       .  A
O477        C482   1.272       .  A
O478        C480   1.273       .  A
C479        O481   1.267       .  A
C483        C484   1.410       .  A
C483       C1024   1.410       .  A
C483        C501   1.475       .  S
C484        C485   1.401       .  A
C484        H489   1.084       .  S
C485        C486   1.394       .  A
C486       C1023   1.397       .  A
C486        H490   1.079       .  S
C487       C1022   1.397   1_455  A
C487        C488   1.401       .  A
C488       C1019   1.410   1_455  A
C488        H491   1.084       .  S
C492        C493   1.411       .  A
C492       C1033   1.411       .  A
C492        C504   1.478       .  S
C493        C494   1.400       .  A
C493        H498   1.084       .  S
C494        C495   1.393       .  A
C495       C1032   1.397       .  A
C495        H499   1.079       .  S
C496       C1031   1.397   1_455  A
C496        C497   1.402       .  A
C497       C1028   1.411   1_455  A
C497        H500   1.084       .  S
C501        C502   1.401       .  A
C501       C1042   1.413       .  A
C502        C503   1.400       .  A
C502        H511   1.084       .  S
C503        C504   1.414       .  A
C503        S507   1.805       .  S
C504       C1041   1.402       .  A
C505       C1040   1.402   1_455  A
C505        C506   1.400       .  A
C505        H512   1.084       .  S
C506       C1037   1.413   1_455  A
C506        S508   1.805       .  S
S507        H510   1.406       .  S
S508        H509   1.406   1_455  S
C513        C514   1.401       .  A
C513        C518   1.414       .  A
C514        C515   1.398       .  A
C514        H523   1.084       .  S
C515        C516   1.416       .  A
C515        S519   1.805       .  S
C516        C517   1.403       .  A
C517        C518   1.398       .  A
C517        H524   1.084       .  S
C518        S520   1.805       .  S
S519        H522   1.407       .  S
S520        H521   1.406       .  S
C525        C526   1.404       .  A
C526        C527   1.398       .  A
C526        H535   1.084       .  S
C527        C528   1.410   1_565  A
C527        S531   1.804       .  S
C529        C530   1.399       .  A
C529        H536   1.084       .  S
C530        S532   1.804       .  S
S531        H534   1.406       .  S
S532        H533   1.406       .  S
C537        C538   1.411       .  A
C537        C810   1.410       .  A
C537        C662   1.473       .  S
C538        C539   1.401       .  A
C538        H543   1.084       .  S
C539        C808   1.394       .  A
C539        C613   1.469       .  S
C540        C807   1.394       .  A
C540        C541   1.395   1_565  A
C540        H544   1.075       .  S
C541        C542   1.400       .  A
C541        C564   1.469       .  S
C542        C805   1.410   1_545  A
C542        H545   1.084       .  S
C546        C815   1.413       .  A
C546        C551   1.410       .  A
C546        C659   1.476       .  S
C547        C814   1.413   1_545  A
C547        C548   1.401       .  A
C547        H552   1.084       .  S
C548        C817   1.396       .  A
C548        C565   1.471       .  S
C549        C816   1.396       .  A
C549        C550   1.391       .  A
C549        H553   1.075       .  S
C550        C551   1.399       .  A
C550        C614   1.466       .  S
C551        H554   1.084       .  S
Fe555       O571   2.080       .  S
Fe555       O561   2.071       .  S
Fe555       O702   2.059   1_554  S
Fe555       O694   2.082   1_554  S
Fe555       O566   1.958       .  S
Fe556       O559   2.081       .  S
Fe556       O563   2.058       .  S
Fe556       O701   2.080   1_554  S
Fe556       O706   2.069   1_554  S
Fe556       O566   1.958       .  S
Fe557       O575   2.054       .  S
Fe557       O696   2.080   1_554  S
Fe557       O569   2.080       .  S
Fe557       O692   2.054   1_554  S
Fe557       O566   1.955       .  S
O558       Fe691   2.054       .  S
O558        C565   1.264       .  A
O559        C573   1.268       .  A
O560       Fe689   2.082       .  S
O560        C565   1.268       .  A
O561        C564   1.272       .  A
O562       Fe691   2.080       .  S
O562        C574   1.275       .  A
O563        C576   1.267       .  A
C564        O569   1.275       .  A
O567       Fe690   2.080       .  S
O567        C570   1.272       .  A
O568       Fe689   2.059       .  S
O568        C570   1.268       .  A
C570        C628   1.467       .  S
O571        C576   1.271       .  A
O572       Fe690   2.069       .  S
O572        C574   1.272       .  A
C573        C581   1.470       .  S
C573        O575   1.264       .  A
C574        C588   1.469       .  S
C576        C619   1.467       .  S
C577        C578   1.411       .  A
C577        C582   1.413       .  A
C577        C650   1.479       .  S
C578        C579   1.398       .  A
C578        H583   1.084       .  S
C579        C580   1.391       .  A
C579        C616   1.465       .  S
C580        C581   1.396       .  A
C580        H584   1.076       .  S
C581        C582   1.400       .  A
C582        H585   1.084       .  S
C586        C587   1.411       .  A
C586        C591   1.411       .  A
C586        C647   1.475       .  S
C587        C588   1.399       .  A
C587        H592   1.084       .  S
C588        C589   1.396       .  A
C589        C590   1.394       .  A
C589        H593   1.075       .  S
C590        C591   1.399       .  A
C590        C610   1.468       .  S
C591        H594   1.084       .  S
Fe595       O611   2.073       .  S
Fe595       O601   2.068       .  S
Fe595       O742   2.062   1_554  S
Fe595       O734   2.078   1_554  S
Fe595       O606   1.955       .  S
Fe596       O599   2.074       .  S
Fe596       O603   2.070       .  S
Fe596       O741   2.074   1_554  S
Fe596       O746   2.071   1_554  S
Fe596       O606   1.954       .  S
Fe597       O615   2.064       .  S
Fe597       O736   2.075   1_554  S
Fe597       O609   2.079       .  S
Fe597       O732   2.067   1_554  S
Fe597       O606   1.954       .  S
O598       Fe731   2.067       .  S
O598        C605   1.269       .  A
O599        C613   1.267       .  A
O600       Fe729   2.078       .  S
O600        C605   1.271       .  A
O601        C604   1.269       .  A
O602       Fe731   2.075       .  S
O602        C614   1.273       .  A
O603        C616   1.272       .  A
C604        C621   1.471       .  S
C604        O609   1.271       .  A
C605        C630   1.471       .  S
O607       Fe730   2.074       .  S
O607        C610   1.267       .  A
O608       Fe729   2.062       .  S
O608        C610   1.266       .  A
O611        C616   1.272       .  A
O612       Fe730   2.071       .  S
O612        C614   1.273       .  A
C613        O615   1.267       .  A
C617        C618   1.410       .  A
C617        C635   1.475       .  S
C618        C619   1.401       .  A
C618        H623   1.084       .  S
C619        C620   1.394       .  A
C620        H624   1.079       .  S
C621        C622   1.401       .  A
C622        H625   1.084       .  S
C626        C627   1.411       .  A
C626        C638   1.478       .  S
C627        C628   1.400       .  A
C627        H632   1.084       .  S
C628        C629   1.393       .  A
C629        H633   1.079       .  S
C630        C631   1.402       .  A
C631        H634   1.084       .  S
C635        C636   1.401       .  A
C636        C637   1.400       .  A
C636        H645   1.084       .  S
C637        C638   1.414       .  A
C637        S641   1.805       .  S
C639        C640   1.400       .  A
C639        H646   1.084       .  S
C640        S642   1.805       .  S
S641        H644   1.406   1_655  S
S642        H643   1.406       .  S
C647        C648   1.401       .  A
C647        C652   1.414       .  A
C648        C649   1.398       .  A
C648        H657   1.084       .  S
C649        C650   1.416       .  A
C649        S653   1.805       .  S
C650        C651   1.403       .  A
C651        C652   1.398       .  A
C651        H658   1.084       .  S
C652        S654   1.805       .  S
S653        H656   1.407       .  S
S654        H655   1.406       .  S
C659        C660   1.404       .  A
C659        C932   1.412       .  A
C660        C661   1.398       .  A
C660        H669   1.084       .  S
C661        C662   1.410       .  A
C661        S665   1.804       .  S
C662        C931   1.403       .  A
C663        C930   1.403       .  A
C663        C664   1.399       .  A
C663        H670   1.084       .  S
C664        C927   1.412   1_545  A
C664        S666   1.804       .  S
S665        H668   1.406       .  S
S666        H667   1.406       .  S
C671        C672   1.411       .  A
C671        C944   1.410       .  A
C671        C796   1.473       .  S
C672        C673   1.401       .  A
C672        H677   1.084       .  S
C673        C942   1.394       .  A
C673        C747   1.469       .  S
C674        C941   1.394       .  A
C674        C675   1.395   1_565  A
C674        H678   1.075       .  S
C675        C676   1.400       .  A
C675        C698   1.469       .  S
C676        C939   1.410   1_545  A
C676        H679   1.084       .  S
C680        C949   1.413       .  A
C680        C685   1.410       .  A
C680        C793   1.476       .  S
C681        C948   1.413   1_545  A
C681        C682   1.401       .  A
C681        H686   1.084       .  S
C682        C951   1.396       .  A
C682        C699   1.471       .  S
C683        C950   1.396       .  A
C683        C684   1.391       .  A
C683        H687   1.075       .  S
C684        C685   1.399       .  A
C684        C748   1.466       .  S
C685        H688   1.084       .  S
Fe689       O705   2.080       .  S
Fe689       O695   2.071       .  S
Fe689       O700   1.958       .  S
Fe690       O693   2.081       .  S
Fe690       O697   2.058       .  S
Fe690       O700   1.958       .  S
Fe691       O709   2.054       .  S
Fe691       O703   2.080       .  S
Fe691       O700   1.955       .  S
O692        C699   1.264       .  A
O693        C707   1.268       .  A
O694        C699   1.268       .  A
O695        C698   1.272       .  A
O696        C708   1.275       .  A
O697        C710   1.267       .  A
C698        O703   1.275       .  A
O701        C704   1.272       .  A
O702        C704   1.268       .  A
C704        C762   1.467       .  S
O705        C710   1.271       .  A
O706        C708   1.272       .  A
C707        C715   1.470       .  S
C707        O709   1.264       .  A
C708        C722   1.469       .  S
C710        C753   1.467       .  S
C711        C712   1.411       .  A
C711        C716   1.413       .  A
C711        C784   1.479       .  S
C712        C713   1.398       .  A
C712        H717   1.084       .  S
C713        C714   1.391       .  A
C713        C750   1.465       .  S
C714        C715   1.396       .  A
C714        H718   1.076       .  S
C715        C716   1.400       .  A
C716        H719   1.084       .  S
C720        C721   1.411       .  A
C720        C725   1.411       .  A
C720        C781   1.475       .  S
C721        C722   1.399       .  A
C721        H726   1.084       .  S
C722        C723   1.396       .  A
C723        C724   1.394       .  A
C723        H727   1.075       .  S
C724        C725   1.399       .  A
C724        C744   1.468       .  S
C725        H728   1.084       .  S
Fe729       O745   2.073       .  S
Fe729       O735   2.068       .  S
Fe729       O740   1.955       .  S
Fe730       O733   2.074       .  S
Fe730       O737   2.070       .  S
Fe730       O740   1.954       .  S
Fe731       O749   2.064       .  S
Fe731       O743   2.079       .  S
Fe731       O740   1.954       .  S
O732        C739   1.269       .  A
O733        C747   1.267       .  A
O734        C739   1.271       .  A
O735        C738   1.269       .  A
O736        C748   1.273       .  A
O737        C750   1.272       .  A
C738        C755   1.471       .  S
C738        O743   1.271       .  A
C739        C764   1.471       .  S
O741        C744   1.267       .  A
O742        C744   1.266       .  A
O745        C750   1.272       .  A
O746        C748   1.273       .  A
C747        O749   1.267       .  A
C751        C752   1.410       .  A
C751        C769   1.475       .  S
C752        C753   1.401       .  A
C752        H757   1.084       .  S
C753        C754   1.394       .  A
C754        H758   1.079       .  S
C755        C756   1.401       .  A
C756        H759   1.084       .  S
C760        C761   1.411       .  A
C760        C772   1.478       .  S
C761        C762   1.400       .  A
C761        H766   1.084       .  S
C762        C763   1.393       .  A
C763        H767   1.079       .  S
C764        C765   1.402       .  A
C765        H768   1.084       .  S
C769        C770   1.401       .  A
C770        C771   1.400       .  A
C770        H779   1.084       .  S
C771        C772   1.414       .  A
C771        S775   1.805       .  S
C773        C774   1.400       .  A
C773        H780   1.084       .  S
C774        S776   1.805       .  S
S775        H778   1.406   1_655  S
S776        H777   1.406       .  S
C781        C782   1.401       .  A
C781        C786   1.414       .  A
C782        C783   1.398       .  A
C782        H791   1.084       .  S
C783        C784   1.416       .  A
C783        S787   1.805       .  S
C784        C785   1.403       .  A
C785        C786   1.398       .  A
C785        H792   1.084       .  S
C786        S788   1.805       .  S
S787        H790   1.407       .  S
S788        H789   1.406       .  S
C793        C794   1.404       .  A
C793       C1066   1.412       .  A
C794        C795   1.398       .  A
C794        H803   1.084       .  S
C795        C796   1.410       .  A
C795        S799   1.804       .  S
C796       C1065   1.403       .  A
C797       C1064   1.403       .  A
C797        C798   1.399       .  A
C797        H804   1.084       .  S
C798       C1061   1.412   1_545  A
C798        S800   1.804       .  S
S799        H802   1.406       .  S
S800        H801   1.406       .  S
C805        C806   1.411       .  A
C805        C930   1.473   1_565  S
C806        C807   1.401       .  A
C806        H811   1.084       .  S
C807        C881   1.469       .  S
C808        C809   1.395       .  A
C808        H812   1.075       .  S
C809        C810   1.400       .  A
C809        C832   1.469       .  S
C810        H813   1.084       .  S
C814        C819   1.410       .  A
C814        C927   1.476       .  S
C815        C816   1.401       .  A
C815        H820   1.084       .  S
C816        C833   1.471       .  S
C817        C818   1.391   1_545  A
C817        H821   1.075       .  S
C818        C819   1.399       .  A
C818        C882   1.466       .  S
C819        H822   1.084       .  S
Fe823       O839   2.080       .  S
Fe823       O829   2.071       .  S
Fe823       O970   2.059   1_554  S
Fe823       O962   2.082   1_554  S
Fe823       O834   1.958       .  S
Fe824       O827   2.081       .  S
Fe824       O831   2.058       .  S
Fe824       O969   2.080   1_554  S
Fe824       O974   2.069   1_554  S
Fe824       O834   1.958       .  S
Fe825       O843   2.054       .  S
Fe825       O964   2.080   1_554  S
Fe825       O837   2.080       .  S
Fe825       O960   2.054   1_554  S
Fe825       O834   1.955       .  S
O826       Fe959   2.054       .  S
O826        C833   1.264       .  A
O827        C841   1.268       .  A
O828       Fe957   2.082       .  S
O828        C833   1.268       .  A
O829        C832   1.272       .  A
O830       Fe959   2.080       .  S
O830        C842   1.275       .  A
O831        C844   1.267       .  A
C832        O837   1.275       .  A
O835       Fe958   2.080       .  S
O835        C838   1.272       .  A
O836       Fe957   2.059       .  S
O836        C838   1.268       .  A
C838        C896   1.467       .  S
O839        C844   1.271       .  A
O840       Fe958   2.069       .  S
O840        C842   1.272       .  A
C841        C849   1.470       .  S
C841        O843   1.264       .  A
C842        C856   1.469       .  S
C844        C887   1.467       .  S
C845        C846   1.411       .  A
C845        C850   1.413       .  A
C845        C918   1.479       .  S
C846        C847   1.398       .  A
C846        H851   1.084       .  S
C847        C848   1.391       .  A
C847        C884   1.465       .  S
C848        C849   1.396       .  A
C848        H852   1.076       .  S
C849        C850   1.400       .  A
C850        H853   1.084       .  S
C854        C855   1.411       .  A
C854        C859   1.411       .  A
C854        C915   1.475       .  S
C855        C856   1.399       .  A
C855        H860   1.084       .  S
C856        C857   1.396       .  A
C857        C858   1.394       .  A
C857        H861   1.075       .  S
C858        C859   1.399       .  A
C858        C878   1.468       .  S
C859        H862   1.084       .  S
Fe863       O879   2.073       .  S
Fe863       O869   2.068       .  S
Fe863      O1010   2.062   1_554  S
Fe863      O1002   2.078   1_554  S
Fe863       O874   1.955       .  S
Fe864       O867   2.074       .  S
Fe864       O871   2.070       .  S
Fe864      O1009   2.074   1_554  S
Fe864      O1014   2.071   1_554  S
Fe864       O874   1.954       .  S
Fe865       O883   2.064       .  S
Fe865      O1004   2.075   1_554  S
Fe865       O877   2.079       .  S
Fe865      O1000   2.067   1_554  S
Fe865       O874   1.954       .  S
O866       Fe999   2.067       .  S
O866        C873   1.269       .  A
O867        C881   1.267       .  A
O868       Fe997   2.078       .  S
O868        C873   1.271       .  A
O869        C872   1.269       .  A
O870       Fe999   2.075       .  S
O870        C882   1.273       .  A
O871        C884   1.272       .  A
C872        C889   1.471       .  S
C872        O877   1.271       .  A
C873        C898   1.471       .  S
O875       Fe998   2.074       .  S
O875        C878   1.267       .  A
O876       Fe997   2.062       .  S
O876        C878   1.266       .  A
O879        C884   1.272       .  A
O880       Fe998   2.071       .  S
O880        C882   1.273       .  A
C881        O883   1.267       .  A
C885        C886   1.410       .  A
C885        C903   1.475       .  S
C886        C887   1.401       .  A
C886        H891   1.084       .  S
C887        C888   1.394       .  A
C888        H892   1.079       .  S
C889        C890   1.401       .  A
C890        H893   1.084       .  S
C894        C895   1.411       .  A
C894        C906   1.478       .  S
C895        C896   1.400       .  A
C895        H900   1.084       .  S
C896        C897   1.393       .  A
C897        H901   1.079       .  S
C898        C899   1.402       .  A
C899        H902   1.084       .  S
C903        C904   1.401       .  A
C904        C905   1.400       .  A
C904        H913   1.084       .  S
C905        C906   1.414       .  A
C905        S909   1.805       .  S
C907        C908   1.400       .  A
C907        H914   1.084       .  S
C908        S910   1.805       .  S
S909        H912   1.406   1_655  S
S910        H911   1.406       .  S
C915        C916   1.401       .  A
C915        C920   1.414       .  A
C916        C917   1.398       .  A
C916        H925   1.084       .  S
C917        C918   1.416       .  A
C917        S921   1.805       .  S
C918        C919   1.403       .  A
C919        C920   1.398       .  A
C919        H926   1.084       .  S
C920        S922   1.805       .  S
S921        H924   1.407       .  S
S922        H923   1.406       .  S
C927        C928   1.404       .  A
C928        C929   1.398       .  A
C928        H937   1.084       .  S
C929        C930   1.410   1_565  A
C929        S933   1.804       .  S
C931        C932   1.399       .  A
C931        H938   1.084       .  S
C932        S934   1.804       .  S
S933        H936   1.406       .  S
S934        H935   1.406       .  S
C939        C940   1.411       .  A
C939       C1064   1.473   1_565  S
C940        C941   1.401       .  A
C940        H945   1.084       .  S
C941       C1015   1.469       .  S
C942        C943   1.395       .  A
C942        H946   1.075       .  S
C943        C944   1.400       .  A
C943        C966   1.469       .  S
C944        H947   1.084       .  S
C948        C953   1.410       .  A
C948       C1061   1.476       .  S
C949        C950   1.401       .  A
C949        H954   1.084       .  S
C950        C967   1.471       .  S
C951        C952   1.391   1_545  A
C951        H955   1.075       .  S
C952        C953   1.399       .  A
C952       C1016   1.466       .  S
C953        H956   1.084       .  S
Fe957       O973   2.080       .  S
Fe957       O963   2.071       .  S
Fe957       O968   1.958       .  S
Fe958       O961   2.081       .  S
Fe958       O965   2.058       .  S
Fe958       O968   1.958       .  S
Fe959       O977   2.054       .  S
Fe959       O971   2.080       .  S
Fe959       O968   1.955       .  S
O960        C967   1.264       .  A
O961        C975   1.268       .  A
O962        C967   1.268       .  A
O963        C966   1.272       .  A
O964        C976   1.275       .  A
O965        C978   1.267       .  A
C966        O971   1.275       .  A
O969        C972   1.272       .  A
O970        C972   1.268       .  A
C972       C1030   1.467       .  S
O973        C978   1.271       .  A
O974        C976   1.272       .  A
C975        C983   1.470       .  S
C975        O977   1.264       .  A
C976        C990   1.469       .  S
C978       C1021   1.467       .  S
C979        C980   1.411       .  A
C979        C984   1.413       .  A
C979       C1052   1.479       .  S
C980        C981   1.398       .  A
C980        H985   1.084       .  S
C981        C982   1.391       .  A
C981       C1018   1.465       .  S
C982        C983   1.396       .  A
C982        H986   1.076       .  S
C983        C984   1.400       .  A
C984        H987   1.084       .  S
C988        C989   1.411       .  A
C988        C993   1.411       .  A
C988       C1049   1.475       .  S
C989        C990   1.399       .  A
C989        H994   1.084       .  S
C990        C991   1.396       .  A
C991        C992   1.394       .  A
C991        H995   1.075       .  S
C992        C993   1.399       .  A
C992       C1012   1.468       .  S
C993        H996   1.084       .  S
Fe997      O1013   2.073       .  S
Fe997      O1003   2.068       .  S
Fe997      O1008   1.955       .  S
Fe998      O1001   2.074       .  S
Fe998      O1005   2.070       .  S
Fe998      O1008   1.954       .  S
Fe999      O1017   2.064       .  S
Fe999      O1011   2.079       .  S
Fe999      O1008   1.954       .  S
O1000      C1007   1.269       .  A
O1001      C1015   1.267       .  A
O1002      C1007   1.271       .  A
O1003      C1006   1.269       .  A
O1004      C1016   1.273       .  A
O1005      C1018   1.272       .  A
C1006      C1023   1.471       .  S
C1006      O1011   1.271       .  A
C1007      C1032   1.471       .  S
O1009      C1012   1.267       .  A
O1010      C1012   1.266       .  A
O1013      C1018   1.272       .  A
O1014      C1016   1.273       .  A
C1015      O1017   1.267       .  A
C1019      C1020   1.410       .  A
C1019      C1037   1.475       .  S
C1020      C1021   1.401       .  A
C1020      H1025   1.084       .  S
C1021      C1022   1.394       .  A
C1022      H1026   1.079       .  S
C1023      C1024   1.401       .  A
C1024      H1027   1.084       .  S
C1028      C1029   1.411       .  A
C1028      C1040   1.478       .  S
C1029      C1030   1.400       .  A
C1029      H1034   1.084       .  S
C1030      C1031   1.393       .  A
C1031      H1035   1.079       .  S
C1032      C1033   1.402       .  A
C1033      H1036   1.084       .  S
C1037      C1038   1.401       .  A
C1038      C1039   1.400       .  A
C1038      H1047   1.084       .  S
C1039      C1040   1.414       .  A
C1039      S1043   1.805       .  S
C1041      C1042   1.400       .  A
C1041      H1048   1.084       .  S
C1042      S1044   1.805       .  S
S1043      H1046   1.406   1_655  S
S1044      H1045   1.406       .  S
C1049      C1050   1.401       .  A
C1049      C1054   1.414       .  A
C1050      C1051   1.398       .  A
C1050      H1059   1.084       .  S
C1051      C1052   1.416       .  A
C1051      S1055   1.805       .  S
C1052      C1053   1.403       .  A
C1053      C1054   1.398       .  A
C1053      H1060   1.084       .  S
C1054      S1056   1.805       .  S
S1055      H1058   1.407       .  S
S1056      H1057   1.406       .  S
C1061      C1062   1.404       .  A
C1062      C1063   1.398       .  A
C1062      H1071   1.084       .  S
C1063      C1064   1.410   1_565  A
C1063      S1067   1.804       .  S
C1065      C1066   1.399       .  A
C1065      H1072   1.084       .  S
C1066      S1068   1.804       .  S
S1067      H1070   1.406       .  S
S1068      H1069   1.406       .  S
