geometry optimzed in LAMMPS
_audit_creation_date              2020-11-30 
_audit_creation_method            'lammps2cif' 
_symmetry_space_group_name_H-M    'P1' 
_symmetry_Int_Tables_number       1 
_symmetry_cell_setting            triclinic 
loop_ 
_symmetry_equiv_pos_as_xyz 
  x,y,z 
_cell_length_a                    31.583968731490412 
_cell_length_b                    31.611897080189284 
_cell_length_c                    51.13725766751619 
_cell_angle_alpha                 89.94622569480461 
_cell_angle_beta                  90.05378759157661 
_cell_angle_gamma                 90.24913273320534 
loop_ 
_atom_site_label 
_atom_site_type_symbol 
_atom_site_fract_x 
_atom_site_fract_y 
_atom_site_fract_z 
_atom_site_charge 
C1          C  0.18114674  0.06711278  0.20795135     0.42460
N2          N  0.21019617  0.10140995  0.17678548     0.01350
C3          C  0.25751670  0.05226236  0.04837287    -0.06520
H4          H  0.34066078  0.97298083  0.10530327     0.06840
C5          C  0.39983070  0.13188465  0.14277446    -0.06880
Co6        Co  0.21005752  0.05892588  0.12458966     0.74180
N7          N  0.29451200  0.01969508  0.11664224    -0.26050
Co8        Co  0.30752732  0.07761633  0.09560875     0.74070
C9          C  0.42229523  0.09302113  0.13603651     0.42560
N10         N  0.30995415  0.17449306  0.16851315     0.00970
N11         N  0.35995786  0.09204661  0.11882788     0.01070
N12         N  0.19608806  0.03019290  0.06645084    -0.46900
H13         H  0.16710974  0.01041175  0.18040466     0.06830
N14         N  0.25802309  0.01558714  0.12911392     0.01360
N15         N  0.31587771  0.13625410  0.07500666     0.01100
C16         C  0.31647105  0.18724369  0.04669122     0.42700
N17         N  0.27327166  0.16808551  0.17990721    -0.25510
C18         C  0.12529850  0.09838357  0.11013401    -0.06430
N19         N  0.19969090  0.10344713  0.20145490    -0.46620
N20         N  0.31337917  0.14437349  0.04940185    -0.46840
C21         C  0.09986311  0.13359604  0.11977131     0.42480
N22         N  0.21898809  0.05261591  0.08348200     0.01350
N23         N  0.22946633  0.21010923  0.13610637    -0.25530
N24         N  0.20121090  0.06500022  0.16559298    -0.26020
N25         N  0.26691813  0.21769966  0.12597746     0.00990
H26         H  0.17308358  0.24680141  0.14036849     0.06880
H27         H  0.32188569  0.23754673  0.07847687     0.06910
N28         N  0.25577509  0.06365755  0.07333334    -0.26070
N29         N  0.36223934  0.12857456  0.13106039    -0.25690
N30         N  0.16464224  0.13995689  0.13365726     0.01350
C31         C  0.28294489  0.95199425  0.13040194     0.42750
C32         C  0.27980915  0.16880949  0.20601317    -0.06940
N33         N  0.31920634  0.17152761  0.08864037    -0.25680
H34         H  0.41043062  0.15950518  0.15337676     0.06900
N35         N  0.25038504  0.97678385  0.13733377    -0.46910
H36         H  0.25499620  0.16374591  0.22008653     0.06880
C37         C  0.23252564  0.27542416  0.12050110     0.42580
C38         C  0.18181729  0.04082918  0.18392019    -0.06430
Co39       Co  0.21890341  0.15536600  0.15667846     0.73820
N40         N  0.34152239  0.17946389  0.18516499    -0.46620
C41         C  0.21834819  0.02989725  0.04363873     0.42850
N42         N  0.12685910  0.15839023  0.13392701    -0.46610
Co43       Co  0.31517157  0.17343550  0.12855411     0.73890
C44         C  0.32061810  0.20473753  0.07260778    -0.06940
C45         C  0.31280909  0.98087523  0.11647852    -0.06500
N46         N  0.16361546  0.10407519  0.12050076    -0.26030
N47         N  0.39544886  0.07014251  0.12092955    -0.46790
H48         H  0.28591894  0.05251258  0.03655977     0.06860
C49         C  0.20501658  0.24423356  0.13316565    -0.06920
Cl50       Cl  0.26277846  0.11604185  0.12620426    -0.49920
C51         C  0.32599969  0.17616224  0.20965474     0.42610
H52         H  0.11653110  0.07033809  0.09960327     0.06820
N53         N  0.27020740  0.25646259  0.11663354    -0.46630
C54         C  0.17733177  0.54269370  0.20486177     0.42460
N55         N  0.22676580  0.56284407  0.17852318     0.01350
C56         C  0.23197130  0.74666192  0.10506187    -0.06520
H57         H  0.10319279  0.63700478  0.08558657     0.06840
C58         C  0.21186605  0.53562702  0.05473189    -0.06880
Co59       Co  0.21091443  0.65155265  0.16015017     0.74180
N60         N  0.15308204  0.64458812  0.11405504    -0.26050
Co61       Co  0.20697859  0.65329667  0.09241147     0.74070
C62         C  0.17245580  0.54940889  0.04311774     0.42560
N63         N  0.27123814  0.51857902  0.10917497     0.00970
N64         N  0.19489139  0.59699937  0.07033605     0.01070
N65         N  0.23597066  0.74538730  0.14920886    -0.46900
H66         H  0.14182781  0.60549714  0.19990636     0.06830
N67         N  0.15377585  0.64494180  0.13981273     0.01360
N68         N  0.26089247  0.66241152  0.07143553     0.01100
C69         C  0.28043596  0.67509528  0.03211416     0.42700
N70         N  0.27073435  0.51740617  0.13491134    -0.25510
C71         C  0.27935041  0.67834471  0.20147585    -0.06430
N72         N  0.21489458  0.53106015  0.19413970    -0.46620
N73         N  0.25827383  0.68983136  0.05227874    -0.46840
C74         C  0.31873411  0.65922471  0.21100133     0.42480
N75         N  0.22390684  0.70800743  0.13968527     0.01350
N76         N  0.33855302  0.58032401  0.13482171    -0.25530
N77         N  0.19971386  0.59456394  0.17908994    -0.26020
N78         N  0.33835003  0.58317354  0.10901544     0.00990
H79         H  0.38827598  0.58332555  0.16363454     0.06880
H80         H  0.31458264  0.61085645  0.02996022     0.06910
N81         N  0.22132316  0.70806063  0.11390703    -0.26070
N82         N  0.22352452  0.56680175  0.07068485    -0.25690
N83         N  0.29611689  0.62447310  0.17787609     0.01350
C84         C  0.08915206  0.63359848  0.12957273     0.42750
C85         C  0.26119667  0.47815217  0.14271311    -0.06940
N86         N  0.28623889  0.63045519  0.06635697    -0.25680
H87         H  0.23121585  0.50878858  0.04952113     0.06900
N88         N  0.11570761  0.63875828  0.15003688    -0.46910
H89         H  0.25875494  0.46763600  0.16278978     0.06880
C90         C  0.40400452  0.59020546  0.11989225     0.42580
C91         C  0.16767745  0.58470051  0.19488661    -0.06430
Co92       Co  0.28342165  0.57054046  0.15678021     0.73820
N93         N  0.26184061  0.48159343  0.09855158    -0.46620
C94         C  0.24184915  0.77134326  0.12835627     0.42850
N95         N  0.32663911  0.62620193  0.19534851    -0.46610
Co96       Co  0.28097833  0.57453946  0.08866551     0.73890
C97         C  0.29985758  0.63541058  0.04145524    -0.06940
C98         C  0.11347101  0.63829761  0.10575071    -0.06500
N99         N  0.26792887  0.65473369  0.18072594    -0.26030
N100        N  0.16447621  0.58869780  0.05293373    -0.46790
H101        H  0.23361562  0.75606425  0.08475403     0.06860
C102        C  0.37840348  0.58468237  0.14339623    -0.06920
Cl103      Cl  0.24577596  0.61256216  0.12454575    -0.49920
C104        C  0.25535217  0.45452718  0.11850136     0.42610
H105        H  0.26010894  0.70245698  0.21051641     0.06820
N106        N  0.37695585  0.58883194  0.09927302    -0.46630
C107        C  0.91741681  0.15642799  0.12686300     0.42460
N108        N  0.85151110  0.15588646  0.11680858     0.01350
C109        C  0.68404942  0.11472755  0.19975225    -0.06520
H110        H  0.78572405  0.00447308  0.20161926     0.06840
C111        C  0.74011250  0.98447314  0.09958759    -0.06880
Co112      Co  0.79657944  0.15430194  0.16558498     0.74180
N113        N  0.78719630  0.06358150  0.18029201    -0.26050
Co114      Co  0.72866914  0.06878081  0.16009605     0.74070
C115        C  0.74790882  0.95576289  0.12140246     0.42560
N116        N  0.77857399  0.07749034  0.07496274     0.00970
N117        N  0.74115275  0.01843757  0.13615823     0.01070
N118        N  0.72958654  0.16614923  0.21205229    -0.46900
H119        H  0.90303761  0.15316873  0.17087975     0.06830
N120        N  0.81313076  0.09641629  0.18168215     0.01360
N121        N  0.67020604  0.07657411  0.14119156     0.01100
C122        C  0.60420343  0.08280709  0.13319474     0.42700
N123        N  0.80240418  0.11095680  0.07057212    -0.25510
C124        C  0.76896377  0.24961882  0.15769028    -0.06430
N125        N  0.89006603  0.15679446  0.10654292    -0.46620
N126        N  0.63248168  0.07606838  0.15245863    -0.46840
C127        C  0.76345930  0.27780302  0.13509313     0.42480
N128        N  0.74022242  0.14992333  0.18874295     0.01350
N129        N  0.73791892  0.17214784  0.07885287    -0.25530
N130        N  0.85203695  0.15463446  0.14271442    -0.26020
N131        N  0.70991319  0.14163534  0.07564231     0.00990
H132        H  0.74727965  0.23344285  0.06220460     0.06880
H133        H  0.61564842  0.09180251  0.08906903     0.06910
N134        N  0.71485580  0.11827210  0.18282465    -0.26070
N135        N  0.73600698  0.02264423  0.11075881    -0.25690
N136        N  0.78134185  0.21565505  0.12171610     0.01350
C137        C  0.84102528  0.05135305  0.20814764     0.42750
C138        C  0.81913013  0.10494535  0.04625499    -0.06940
N139        N  0.66797663  0.08339283  0.11579353    -0.25680
H140        H  0.73739739  0.97773412  0.07892658     0.06900
N141        N  0.84488562  0.09062994  0.19817356    -0.46910
H142        H  0.83556537  0.12890100  0.03502882     0.06880
C143        C  0.68964644  0.19360864  0.05084165     0.42580
C144        C  0.89247496  0.15419856  0.15077039    -0.06430
Co145      Co  0.79440463  0.16390984  0.09680657     0.73820
N146        N  0.78137045  0.04790786  0.05722899    -0.46620
C147        C  0.69309423  0.14557715  0.21937816     0.42850
N148        N  0.77213127  0.25449381  0.11365848    -0.46610
Co149      Co  0.72255492  0.08155351  0.09402035     0.73890
C150        C  0.62734424  0.08734639  0.10875916    -0.06940
C151        C  0.80195004  0.03360154  0.19670455    -0.06500
N152        N  0.77972611  0.21182401  0.14750563    -0.26030
N153        N  0.74815217  0.97894289  0.14348031    -0.46790
H154        H  0.66307462  0.08763188  0.20093425     0.06860
C155        C  0.72749631  0.20573743  0.06480843    -0.06920
Cl156      Cl  0.76062403  0.11720619  0.12917200    -0.49920
C157        C  0.80436974  0.06216081  0.03729288     0.42610
H158        H  0.76654160  0.25673944  0.17830928     0.06820
N159        N  0.68064389  0.15277077  0.05799364    -0.46630
C160        C  0.90814470  0.63203471  0.13217789     0.42460
N161        N  0.84515909  0.64223337  0.11906782     0.01350
C162        C  0.66505195  0.64516367  0.19685593    -0.06520
H163        H  0.76021010  0.51455351  0.20831359     0.06840
C164        C  0.72417499  0.48473340  0.10494909    -0.06880
Co165      Co  0.78424597  0.65653817  0.16310615     0.74180
N166        N  0.76211436  0.57099461  0.18385823    -0.26050
Co167      Co  0.70638308  0.57922727  0.16059497     0.74070
C168        C  0.72793377  0.45859884  0.12844151     0.42560
N169        N  0.76991480  0.56882665  0.07556814     0.00970
N170        N  0.71678772  0.52339390  0.13950813     0.01070
N171        N  0.71661477  0.69490616  0.19978998    -0.46900
H172        H  0.88869161  0.63829002  0.17502523     0.06830
N173        N  0.79020591  0.60188730  0.18287126     0.01360
N174        N  0.65249181  0.59081153  0.13685081     0.01100
C175        C  0.58845492  0.60107795  0.12344498     0.42700
N176        N  0.80101433  0.59675004  0.07550599    -0.25510
C177        C  0.77358744  0.75154300  0.15011829    -0.06430
N178        N  0.88405351  0.63551153  0.11064726    -0.46620
N179        N  0.61282170  0.59520902  0.14496396    -0.46840
C180        C  0.77589582  0.77649623  0.12626809     0.42480
N181        N  0.72599892  0.66560051  0.18207409     0.01350
N182        N  0.74202621  0.66648980  0.07514399    -0.25530
N183        N  0.84224747  0.64458006  0.14467811    -0.26020
N184        N  0.71198126  0.63899468  0.06965157     0.00990
H185        H  0.76648874  0.72197688  0.05724267     0.06880
H186        H  0.60966468  0.60070051  0.08029311     0.06910
N187        N  0.69675947  0.63564522  0.18066292    -0.26070
N188        N  0.71754822  0.52429229  0.11366386    -0.25690
N189        N  0.78444245  0.71132800  0.11651559     0.01350
C190        C  0.81791713  0.56052470  0.21103593     0.42750
C191        C  0.83054677  0.58283059  0.05847955    -0.06940
N192        N  0.65559230  0.59303229  0.11107150    -0.25680
H193        H  0.72661756  0.47553060  0.08465626     0.06900
N194        N  0.82265968  0.59685550  0.19829206    -0.46910
H195        H  0.85850466  0.60016227  0.05250437     0.06880
C196        C  0.70952591  0.68841529  0.04012730     0.42580
C197        C  0.88083509  0.63813059  0.15475020    -0.06430
Co198      Co  0.79365165  0.65422195  0.09645323     0.73820
N199        N  0.77631131  0.53641340  0.05999496    -0.46620
C200        C  0.67810277  0.68427793  0.20948209     0.42850
N201        N  0.78226690  0.74971600  0.10614516    -0.46610
Co202      Co  0.71264068  0.58112328  0.09210405     0.73890
C203        C  0.61698525  0.59933657  0.10093995    -0.06940
C204        C  0.77663723  0.54279331  0.20191591    -0.06500
N205        N  0.77921668  0.71169181  0.14205891    -0.26030
N206        N  0.72258437  0.48474144  0.14912461    -0.46790
H207        H  0.63821109  0.62499504  0.20117478     0.06860
C208        C  0.74141318  0.69868446  0.05889730    -0.06920
Cl209      Cl  0.74893438  0.61784598  0.12808778    -0.49920
C210        C  0.81376956  0.54236127  0.04833739     0.42610
H211        H  0.76940765  0.76167328  0.17014058     0.06820
N212        N  0.69319189  0.64964287  0.04708575    -0.46630
C213        C  0.18640963  0.45852325  0.94881140     0.42460
N214        N  0.23409393  0.43155788  0.92382639     0.01350
C215        C  0.21068391  0.37740217  0.79177387    -0.06520
H216        H  0.13727176  0.28352479  0.85369154     0.06840
C217        C  0.27487642  0.23851854  0.88985552    -0.06880
Co218      Co  0.20630921  0.42853020  0.86715163     0.74180
N219        N  0.17328151  0.34154075  0.85777233    -0.26050
Co220      Co  0.23350574  0.33234863  0.84025043     0.74070
C221        C  0.23703595  0.21776521  0.87946557     0.42560
N222        N  0.31032134  0.32774791  0.92067885     0.00970
N223        N  0.24259663  0.27980062  0.86310800     0.01070
N224        N  0.18134299  0.43642841  0.80772149    -0.46900
H225        H  0.14012053  0.46552770  0.91424390     0.06830
N226        N  0.16363265  0.37852250  0.86822534     0.01360
N227        N  0.29547307  0.32704745  0.82480683     0.01100
C228        C  0.35157411  0.33551401  0.80049655     0.42700
N229        N  0.29988723  0.36330567  0.93249399    -0.25510
C230        C  0.25608375  0.51312478  0.85545494    -0.06430
N231        N  0.22655542  0.44433822  0.94801449    -0.46620
N232        N  0.30836822  0.33504262  0.80058614    -0.46840
C233        C  0.29392336  0.53411466  0.86593595     0.42480
N234        N  0.20722849  0.41913916  0.82548538     0.01350
N235        N  0.35513949  0.40883845  0.89515427    -0.25530
N236        N  0.20153619  0.43729189  0.90802988    -0.26020
N237        N  0.36463429  0.37240210  0.88421978     0.00990
H238        H  0.39361882  0.46241275  0.90687039     0.06880
H239        H  0.39415337  0.32578197  0.83689990     0.06910
N240        N  0.22222196  0.38311812  0.81661075    -0.26070
N241        N  0.27563944  0.27658583  0.87851700    -0.25690
N242        N  0.28644456  0.47281300  0.88418075     0.01350
C243        C  0.10754267  0.34114967  0.87426286     0.42750
C244        C  0.29496520  0.35419032  0.95820799    -0.06940
N245        N  0.32770924  0.32324759  0.84092921    -0.25680
H246        H  0.29900003  0.22596531  0.90269292     0.06900
N247        N  0.12486059  0.37972505  0.87786256    -0.46910
H248        H  0.28713104  0.37728052  0.97288476     0.06880
C249        C  0.42403152  0.40518748  0.88637338     0.42580
C250        C  0.16979172  0.45428225  0.92212611    -0.06430
Co251      Co  0.29411845  0.41970851  0.90937977     0.73820
N252        N  0.31277314  0.29491496  0.93651317    -0.46620
C253        C  0.18258488  0.41194231  0.78562351     0.42850
N254        N  0.31021456  0.50756081  0.88410895    -0.46610
Co255      Co  0.32005302  0.32441105  0.88103690     0.73890
C256        C  0.36384996  0.32643893  0.82754824    -0.06940
C257        C  0.13954497  0.31571071  0.86068183    -0.06500
N258        N  0.25400032  0.47551035  0.86768595    -0.26030
N259        N  0.21915020  0.24506399  0.86259357    -0.46790
H260        H  0.21247994  0.34733085  0.78175478     0.06860
C261        C  0.39087255  0.43196228  0.89738691    -0.06920
Cl262      Cl  0.26352431  0.37660244  0.87438778    -0.49920
C263        C  0.30330612  0.30799375  0.96077251     0.42610
H264        H  0.23251065  0.52546229  0.84216219     0.06820
N265        N  0.40546428  0.36870065  0.87905628    -0.46630
C266        C  0.28142946  0.93958380  0.95773015     0.42460
N267        N  0.30343805  0.89465446  0.92890016     0.01350
C268        C  0.28932192  0.93839564  0.79751120    -0.06520
H269        H  0.17760279  0.01179415  0.85103509     0.06840
C270        C  0.12967572  0.84873504  0.88243564    -0.06880
Co271      Co  0.31307527  0.93769712  0.87742478     0.74180
N272        N  0.22776051  0.97073011  0.86424861    -0.26050
Co273      Co  0.22420038  0.91621226  0.84215603     0.74070
C274        C  0.10515543  0.88588043  0.87547413     0.42560
N275        N  0.22023087  0.80314330  0.91064008     0.00970
N276        N  0.16910612  0.89429564  0.86188820     0.01070
N277        N  0.34808461  0.95036033  0.82147283    -0.46900
H278        H  0.29637905  0.99537769  0.93062595     0.06830
N279        N  0.26213224  0.97793781  0.87802775     0.01360
N280        N  0.22325257  0.86345151  0.81975995     0.01100
C281        C  0.20391528  0.83059960  0.78516715     0.42700
N282        N  0.25160320  0.82040182  0.92363613    -0.25510
C283        C  0.40257912  0.90359729  0.86887652    -0.06430
N284        N  0.28689597  0.89788392  0.95273434    -0.46620
N285        N  0.21798195  0.86732850  0.79449274    -0.46840
C286        C  0.42534585  0.86584374  0.87662094     0.42480
N287        N  0.31488597  0.94243070  0.83661789     0.01350
N288        N  0.30391392  0.78345632  0.88214378    -0.25530
N289        N  0.30818620  0.93191063  0.91774638    -0.26020
N290        N  0.27059176  0.77516960  0.86726212     0.00990
H291        H  0.35738287  0.74504755  0.89327152     0.06880
H292        H  0.18904365  0.77024071  0.80932117     0.06910
N293        N  0.28014215  0.93497061  0.82310574    -0.26070
N294        N  0.16814512  0.85616486  0.87269728    -0.25690
N295        N  0.36095633  0.85937100  0.88826563     0.01350
C296        C  0.22980566  0.03716958  0.87842727     0.42750
C297        C  0.25088640  0.80826465  0.94837782    -0.06940
N298        N  0.21552909  0.82514862  0.82873495    -0.25680
H299        H  0.11953387  0.81951687  0.89148526     0.06900
N300        N  0.26431616  0.01686606  0.88689021    -0.46910
H301        H  0.27702950  0.81307328  0.96177024     0.06880
C302        C  0.30723049  0.71759830  0.86492354     0.42580
C303        C  0.29773343  0.96209296  0.93492790    -0.06430
Co304      Co  0.30578781  0.83935851  0.90598534     0.73820
N305        N  0.20131100  0.77348917  0.92512282    -0.46620
C306        C  0.33471885  0.94825639  0.79632430     0.42850
N307        N  0.39777739  0.83967599  0.88864974    -0.46610
Co308      Co  0.21788211  0.81401707  0.86961044     0.73890
C309        C  0.20177114  0.80199699  0.80816374    -0.06940
C310        C  0.20488543  0.00648886  0.86338667    -0.06500
N311        N  0.36325364  0.89690494  0.87726619    -0.26030
N312        N  0.13151318  0.91292535  0.86278345    -0.46790
H313        H  0.26746161  0.93254077  0.78163507     0.06860
C314        C  0.32913379  0.74909050  0.88158700    -0.06920
Cl315      Cl  0.26519498  0.87649054  0.87356824    -0.49920
C316        C  0.21964087  0.77486148  0.94936244     0.42610
H317        H  0.41394232  0.93223234  0.85972758     0.06820
N318        N  0.27099718  0.73649483  0.85728005    -0.46630
C319        C  0.83291363  0.44071806  0.95617017     0.42460
N320        N  0.81760884  0.39108930  0.92909796     0.01350
C321        C  0.78518998  0.41760433  0.79576145    -0.06520
H322        H  0.68138709  0.50393083  0.85476640     0.06840
C323        C  0.62607026  0.35720127  0.88955692    -0.06880
Co324      Co  0.81934502  0.42432882  0.87413184     0.74180
N325        N  0.73474391  0.46319255  0.86249848    -0.26050
Co326      Co  0.72362308  0.40541411  0.84334836     0.74070
C327        C  0.60549729  0.39590274  0.88045956     0.42560
N328        N  0.71569997  0.31179939  0.92002000     0.00970
N329        N  0.66916910  0.39386380  0.86565132     0.01070
N330        N  0.84658514  0.42992981  0.81693736    -0.46900
H331        H  0.83899587  0.48983045  0.92338716     0.06830
N332        N  0.77124180  0.46972859  0.87436054     0.01360
N333        N  0.71384950  0.34740706  0.82478536     0.01100
C334        C  0.69657578  0.30063018  0.79604737     0.42700
N335        N  0.75185152  0.32019899  0.93202573    -0.25510
C336        C  0.90551568  0.37892337  0.86425643    -0.06430
N337        N  0.82262820  0.39913487  0.95441694    -0.46620
N338        N  0.70619379  0.34191780  0.79956461    -0.46840
C339        C  0.92578233  0.34039403  0.87376549     0.42480
N340        N  0.81532234  0.42270605  0.83354058     0.01350
N341        N  0.79697685  0.27548943  0.89101389    -0.25530
N342        N  0.82281433  0.42525185  0.91454619    -0.26020
N343        N  0.76091320  0.26800976  0.87876445     0.00990
H344        H  0.85277860  0.23772802  0.89737754     0.06880
H345        H  0.68803996  0.24953300  0.82768725     0.06910
N346        N  0.77895934  0.41564165  0.82171538    -0.26070
N347        N  0.66503838  0.35849698  0.87924066    -0.25690
N348        N  0.86233673  0.34358680  0.88881025     0.01350
C349        C  0.73886998  0.52973927  0.87804574     0.42750
C350        C  0.74721230  0.31132106  0.95756105    -0.06940
N351        N  0.70873036  0.31231532  0.83840644    -0.25680
H352        H  0.61283982  0.33099043  0.90048149     0.06900
N353        N  0.77481023  0.50857691  0.88363976    -0.46910
H354        H  0.77243659  0.31137893  0.97187556     0.06880
C355        C  0.79667777  0.21092608  0.87353572     0.42580
C356        C  0.83234099  0.45799321  0.92990840    -0.06430
Co357      Co  0.80749348  0.33243411  0.91074338     0.73820
N358        N  0.68658986  0.29591354  0.93603640    -0.46620
C359        C  0.83054100  0.42759486  0.79241773     0.42850
N360        N  0.89746467  0.32076902  0.88945720    -0.46610
Co361      Co  0.71210175  0.31223461  0.87916216     0.73890
C362        C  0.69727804  0.28117407  0.82198683    -0.06940
C363        C  0.71196296  0.49918678  0.86380809    -0.06500
N364        N  0.86642277  0.37813231  0.87449586    -0.26030
N365        N  0.63418367  0.41688928  0.86569501    -0.46790
H366        H  0.76032915  0.41296959  0.78166279     0.06860
C367        C  0.82163957  0.24121528  0.88885192    -0.06920
Cl368      Cl  0.76555560  0.36867611  0.87695988    -0.49920
C369        C  0.70374347  0.29554707  0.96024471     0.42610
H370        H  0.91905417  0.40466130  0.85305020     0.06820
N371        N  0.75925814  0.22970447  0.86841970    -0.46630
C372        C  0.79596256  0.78052060  0.95989733     0.42460
N373        N  0.78144018  0.82809840  0.93087565     0.01350
C374        C  0.81737605  0.84516620  0.79788458    -0.06520
H375        H  0.90091505  0.94443004  0.85260029     0.06840
C376        C  0.76374715  0.01460107  0.88204942    -0.06880
Co377      Co  0.81425706  0.81275505  0.87695490     0.74180
N378        N  0.85766397  0.89428057  0.86285840    -0.26050
Co379      Co  0.80190341  0.90749234  0.84174799     0.74070
C380        C  0.80355307  0.03080083  0.87197763     0.42560
N381        N  0.71973059  0.93390573  0.91740508     0.00970
N382        N  0.79600987  0.96613888  0.86012609     0.01070
N383        N  0.83004209  0.78473533  0.81984897    -0.46900
H384        H  0.84010868  0.74743411  0.92963871     0.06830
N385        N  0.86215909  0.85906512  0.87677028     0.01360
N386        N  0.74252830  0.91660896  0.82310032     0.01100
C387        C  0.68828104  0.91400640  0.79724805     0.42700
N388        N  0.72553479  0.89900277  0.93106882    -0.25510
C389        C  0.76199196  0.73387138  0.86620739    -0.06430
N390        N  0.77506406  0.81609562  0.95499025    -0.46620
N391        N  0.73087664  0.90762083  0.79873778    -0.46840
C392        C  0.72473759  0.71400032  0.87756795     0.42480
N393        N  0.81610757  0.81481452  0.83578838     0.01350
N394        N  0.67042131  0.85172263  0.89371979    -0.25530
N395        N  0.81057450  0.80636674  0.91869304    -0.26020
N396        N  0.66491362  0.88733083  0.88094737     0.00990
H397        H  0.62893447  0.80014158  0.90398066     0.06880
H398        H  0.64432809  0.93705339  0.83015408     0.06910
N399        N  0.80943993  0.85055606  0.82323805    -0.26070
N400        N  0.76188598  0.97459640  0.87379861    -0.25690
N401        N  0.73082697  0.77871212  0.89192173     0.01350
C402        C  0.92270877  0.89013435  0.87940886     0.42750
C403        C  0.73777200  0.91056205  0.95538964    -0.06940
N404        N  0.70980178  0.92750149  0.83750332    -0.25680
H405        H  0.73907933  0.03108708  0.89251181     0.06900
N406        N  0.90087336  0.85497079  0.88632058    -0.46910
H407        H  0.74788152  0.88950631  0.97080357     0.06880
C408        C  0.60505560  0.85557339  0.87882908     0.42580
C409        C  0.82143220  0.77440834  0.93534950    -0.06430
Co410      Co  0.72638013  0.83910686  0.91213838     0.73820
N411        N  0.72797743  0.96886111  0.93072402    -0.46620
C412        C  0.83031873  0.80136953  0.79536489     0.42850
N413        N  0.70715799  0.74364101  0.89376490    -0.46610
Co414      Co  0.71334538  0.93149433  0.87748447     0.73890
C415        C  0.67505198  0.92898812  0.82279488    -0.06940
C416        C  0.89428167  0.91581343  0.86346712    -0.06500
N417        N  0.76384703  0.77228737  0.87666879    -0.26030
N418        N  0.82140092  0.99952875  0.85775837    -0.46790
H419        H  0.81945200  0.87053246  0.78374790     0.06860
C420        C  0.63430037  0.82952085  0.89365861    -0.06920
Cl421      Cl  0.76420328  0.87252209  0.87686549    -0.49920
C422        C  0.73947296  0.95694264  0.95487785     0.42610
H423        H  0.78706728  0.71944203  0.85495916     0.06820
N424        N  0.62586145  0.89137066  0.87220240    -0.46630
C425        C  0.08348319  0.32947464  0.70605257     0.42460
N426        N  0.03505378  0.30521176  0.67966472     0.01350
C427        C  0.08057530  0.32555243  0.54793615    -0.06520
H428        H  0.16359047  0.41804038  0.60084801     0.06840
C429        C  0.01347831  0.48336292  0.63774054    -0.06880
Co430      Co  0.07333640  0.29177211  0.62624640     0.74180
N431        N  0.11744538  0.37227907  0.61397197    -0.26050
Co432      Co  0.06329388  0.38470458  0.59391738     0.74070
C433        C  0.05373086  0.50277303  0.63111428     0.42560
N434        N  0.95970545  0.40075713  0.66449467     0.00970
N435        N  0.05161827  0.43996407  0.61529859     0.01070
N436        N  0.08292992  0.26154603  0.56758041    -0.46900
H437        H  0.13601390  0.31270829  0.67741732     0.06830
N438        N  0.12076118  0.33552566  0.62570107     0.01360
N439        N  0.01039065  0.39390310  0.57248487     0.01100
C440        C  0.97904359  0.42064066  0.53933425     0.42700
N441        N  0.96553463  0.36497087  0.67709348    -0.25510
C442        C  0.02967060  0.20775790  0.61754547    -0.06430
N443        N  0.04128368  0.32405383  0.70266699    -0.46620
N444        N  0.01387559  0.40099006  0.54734741    -0.46840
C445        C  0.99187891  0.18539377  0.62665642     0.42480
N446        N  0.07525008  0.29216274  0.58479974     0.01350
N447        N  0.92248085  0.32141500  0.63639571    -0.25530
N448        N  0.07108013  0.29841422  0.66725710    -0.26020
N449        N  0.91997561  0.35587971  0.62167768     0.00990
H450        H  0.87509240  0.28361833  0.65500860     0.06880
H451        H  0.92225973  0.44061864  0.56524151     0.06910
N452        N  0.07344525  0.32951511  0.57344379    -0.26070
N453        N  0.01467197  0.44536098  0.62673785    -0.25690
N454        N  0.99043450  0.25095516  0.63938411     0.01350
C455        C  0.18369228  0.35854897  0.62386345     0.42750
C456        C  0.95589571  0.37014391  0.70222842    -0.06940
N457        N  0.97400554  0.40558578  0.58251522    -0.25680
H458        H  0.98605502  0.49731974  0.64692905     0.06900
N459        N  0.15985707  0.32595696  0.63168045    -0.46910
H460        H  0.95420529  0.34508405  0.71661047     0.06880
C461        C  0.85471439  0.33710310  0.62669369     0.42580
C462        C  0.10316520  0.31109081  0.68289562    -0.06430
Co463      Co  0.97794736  0.30908256  0.65837466     0.73820
N464        N  0.94458919  0.43076648  0.68008242    -0.46620
C465        C  0.08544838  0.28044211  0.54360571     0.42850
N466        N  0.96898545  0.21451540  0.64027249    -0.46610
Co467      Co  0.96644224  0.40234034  0.62359351     0.73890
C468        C  0.95178346  0.42383952  0.56291292    -0.06940
C469        C  0.15597771  0.38991303  0.61192935    -0.06500
N470        N  0.02639951  0.24683885  0.62678176    -0.26030
N471        N  0.07566311  0.47433398  0.61676909    -0.46790
H472        H  0.08328910  0.35184983  0.53469739     0.06860
C473        C  0.88279803  0.30721824  0.64056670    -0.06920
Cl474      Cl  0.01990186  0.34668801  0.62532235    -0.49920
C475        C  0.94304444  0.41390287  0.70449026     0.42610
H476        H  0.05726908  0.19646558  0.60731273     0.06820
N477        N  0.88072396  0.36566950  0.61553767    -0.46630
C478        C  0.08953395  0.89138657  0.71023607     0.42460
N479        N  0.06202845  0.85677671  0.67852221     0.01350
C480        C  0.02509738  0.89512579  0.54814999    -0.06520
H481        H  0.93104025  0.97539915  0.60716950     0.06840
C482        C  0.87267706  0.83266472  0.63853983    -0.06880
Co483      Co  0.06756185  0.89720889  0.62577767     0.74180
N484        N  0.98352101  0.93367160  0.61570740    -0.26050
Co485      Co  0.97256833  0.87605928  0.59427721     0.74070
C486        C  0.85637520  0.87446515  0.63097976     0.42560
N487        N  0.96211846  0.78392131  0.66813496     0.00970
N488        N  0.91872094  0.86662119  0.61569236     0.01070
N489        N  0.07535656  0.93321129  0.56884047    -0.46900
H490        H  0.10908626  0.94568708  0.68212721     0.06830
N491        N  0.01922087  0.94024223  0.62850064     0.01360
N492        N  0.96108633  0.81858097  0.57406901     0.01100
C493        C  0.94841440  0.76965821  0.54551329     0.42700
N494        N  0.99827403  0.79033958  0.68030919    -0.25510
C495        C  0.15434720  0.85518320  0.61521334    -0.06430
N496        N  0.07005687  0.85555398  0.70358622    -0.46620
N497        N  0.95712653  0.81160071  0.54848944    -0.46840
C498        C  0.17721075  0.81919841  0.62635886     0.42480
N499        N  0.06027695  0.90281694  0.58437631     0.01350
N500        N  0.04413443  0.74754170  0.63855617    -0.25530
N501        N  0.07358137  0.89222747  0.66706052    -0.26020
N502        N  0.00739055  0.73990136  0.62735306     0.00990
H503        H  0.09984335  0.71035777  0.64513607     0.06880
H504        H  0.94386294  0.71899563  0.57778685     0.06910
N505        N  0.02749346  0.88432187  0.57326996    -0.26070
N506        N  0.91188124  0.83100932  0.62839464    -0.25690
N507        N  0.11098752  0.81569152  0.63746943     0.01350
C508        C  0.98756485  0.00036819  0.63106883     0.42750
C509        C  0.99085741  0.78827481  0.70623957    -0.06940
N510        N  0.95601406  0.78370446  0.58776112    -0.25680
H511        H  0.85705570  0.80751571  0.64921202     0.06900
N512        N  0.02293356  0.97916524  0.63764313    -0.46910
H513        H  0.01468375  0.79314437  0.72101266     0.06880
C514        C  0.04255469  0.68252913  0.62280836     0.42580
C515        C  0.09256050  0.91619408  0.68562825    -0.06430
Co516      Co  0.05428142  0.80219533  0.65884222     0.73820
N517        N  0.93009447  0.77712759  0.68417891    -0.46620
C518        C  0.05329182  0.93106046  0.54589480     0.42850
N519        N  0.14809561  0.79611960  0.63984481    -0.46610
Co520      Co  0.95872309  0.78398094  0.62801049     0.73890
C521        C  0.94845570  0.75127724  0.57163843    -0.06940
C522        C  0.96076844  0.96978157  0.61706178    -0.06500
N523        N  0.11442151  0.85109614  0.62376177    -0.26030
N524        N  0.88646684  0.89293931  0.61637796    -0.46790
H525        H  0.99725664  0.88968821  0.53629229     0.06860
C526        C  0.06871151  0.71347465  0.63656200    -0.06920
Cl527      Cl  0.01337652  0.83977416  0.62665148    -0.49920
C528        C  0.94516450  0.77903918  0.70884225     0.42610
H529        H  0.16712404  0.88308087  0.60580053     0.06820
N530        N  0.00504645  0.70121120  0.61801536    -0.46630
C531        C  0.44312778  0.40586285  0.71024565     0.42460
N532        N  0.49454866  0.40788930  0.68195646     0.01350
C533        C  0.46327438  0.39162672  0.54808434    -0.06520
H534        H  0.38310526  0.27752746  0.60408344     0.06840
C535        C  0.53038202  0.22780229  0.63834794    -0.06880
Co536      Co  0.45872544  0.41441998  0.62791965     0.74180
N537        N  0.42244634  0.33108581  0.61389909    -0.26050
Co538      Co  0.47731087  0.32415440  0.59326653     0.74070
C539        C  0.49941659  0.20252343  0.62461183     0.42560
N540        N  0.57500748  0.31248920  0.66786520     0.00970
N541        N  0.49167207  0.26762517  0.61349436     0.01070
N542        N  0.45218523  0.44995876  0.57266414    -0.46900
H543        H  0.39477547  0.41545963  0.67686286     0.06830
N544        N  0.41570662  0.36559495  0.62749523     0.01360
N545        N  0.53196019  0.31784677  0.57321043     0.01100
C546        C  0.56638469  0.28700051  0.54266767     0.42700
N547        N  0.56625636  0.34728934  0.68085214    -0.25510
C548        C  0.49766952  0.50001221  0.61970029    -0.06430
N549        N  0.48599769  0.40290173  0.70726353    -0.46620
N550        N  0.53054398  0.30706882  0.54845778    -0.46840
C551        C  0.53350052  0.52326169  0.62983068     0.42480
N552        N  0.45812013  0.41599902  0.58738444     0.01350
N553        N  0.61033166  0.39341860  0.64101222    -0.25530
N554        N  0.45978005  0.41267421  0.66815659    -0.26020
N555        N  0.61457377  0.35982083  0.62581375     0.00990
H556        H  0.65673796  0.43502080  0.65831167     0.06880
H557        H  0.61992070  0.26915576  0.57157605     0.06910
N558        N  0.46485066  0.38141369  0.57368131    -0.26070
N559        N  0.52558595  0.26617621  0.62841505    -0.25690
N560        N  0.53855525  0.45870185  0.64193414     0.01350
C561        C  0.35855202  0.33021109  0.63106970     0.42750
C562        C  0.57447170  0.34136835  0.70616626    -0.06940
N563        N  0.56730525  0.30707348  0.58512477    -0.25680
H564        H  0.55721543  0.21800070  0.64982214     0.06900
N565        N  0.37763939  0.36660337  0.63782267    -0.46910
H566        H  0.57384050  0.36571330  0.72101095     0.06880
C567        C  0.67814379  0.38353663  0.62907383     0.42580
C568        C  0.42642755  0.41267189  0.68399381    -0.06430
Co569      Co  0.55293998  0.40283386  0.66189767     0.73820
N570        N  0.59084105  0.28264382  0.68332071    -0.46620
C571        C  0.45513813  0.43728507  0.54761057     0.42850
N572        N  0.55764842  0.49599492  0.64376460    -0.46610
Co573      Co  0.57111129  0.31133045  0.62675344     0.73890
C574        C  0.59125741  0.28640470  0.56726808    -0.06940
C575        C  0.38787860  0.30668563  0.61475330    -0.06500
N576        N  0.50287457  0.46115371  0.62869284    -0.26030
N577        N  0.47510226  0.22938725  0.61028365    -0.46790
H578        H  0.46824574  0.37016318  0.53193700     0.06860
C579        C  0.64918049  0.41058301  0.64428954    -0.06920
Cl580      Cl  0.51531934  0.36335255  0.62736447    -0.49920
C581        C  0.58995660  0.29823092  0.70798818     0.42610
H582        H  0.46967575  0.51144868  0.60980458     0.06820
N583        N  0.65383969  0.35320452  0.61843205    -0.46630
C584        C  0.59498416  0.84683175  0.70829410     0.42460
N585        N  0.54520939  0.83010330  0.68102977     0.01350
C586        C  0.58585377  0.83894196  0.54905693    -0.06520
H587        H  0.65195113  0.95667113  0.59712272     0.06840
C588        C  0.48229518  0.99718876  0.62549840    -0.06880
Co589      Co  0.58524243  0.82038224  0.62884595     0.74180
N590        N  0.61310965  0.90666902  0.61323238    -0.26050
Co591      Co  0.55768095  0.90425914  0.59128571     0.74070
C592        C  0.51443735  0.02406412  0.61419883     0.42560
N593        N  0.45063269  0.90939230  0.66158829     0.00970
N594        N  0.53233269  0.95960181  0.60808690     0.01070
N595        N  0.60200159  0.78329595  0.57480225    -0.46900
H596        H  0.64619079  0.83037460  0.67835702     0.06830
N597        N  0.62251597  0.87388068  0.62795769     0.01360
N598        N  0.50446289  0.89826747  0.56940097     0.01100
C599        C  0.47072647  0.91573737  0.53457632     0.42700
N600        N  0.46437861  0.87772533  0.67603027    -0.25510
C601        C  0.55691133  0.73014206  0.62202788    -0.06430
N602        N  0.55209891  0.84375170  0.70531332    -0.46620
N603        N  0.50773475  0.90281422  0.54402278    -0.46840
C604        C  0.52270785  0.70381726  0.63168274     0.42480
N605        N  0.59010259  0.81638772  0.58872905     0.01350
N606        N  0.43014546  0.82022850  0.63779697    -0.25530
N607        N  0.58108934  0.82530527  0.66838166    -0.26020
N608        N  0.42021894  0.85127844  0.62152873     0.00990
H609        H  0.39222428  0.77087285  0.65534389     0.06880
H610        H  0.41064543  0.92967496  0.55921534     0.06910
N611        N  0.58033055  0.84920554  0.57422916    -0.26070
N612        N  0.49502936  0.95836368  0.61975601    -0.25690
N613        N  0.51088897  0.76800670  0.64266709     0.01350
C614        C  0.68069643  0.90878816  0.62610411     0.42750
C615        C  0.45446808  0.88437018  0.70100938    -0.06940
N616        N  0.46609807  0.90465090  0.57863806    -0.25680
H617        H  0.45162274  0.00521685  0.63334966     0.06900
N618        N  0.66212723  0.87398281  0.63581852    -0.46910
H619        H  0.45912326  0.86200669  0.71676668     0.06880
C620        C  0.36191778  0.81515266  0.62468067     0.42580
C621        C  0.61365941  0.83215481  0.68424726    -0.06430
Co622      Co  0.48747309  0.82309789  0.65990529     0.73820
N623        N  0.42992581  0.93783756  0.67590085    -0.46620
C624        C  0.60096331  0.79532663  0.54947763     0.42850
N625        N  0.49520252  0.72923737  0.64442311    -0.46610
Co626      Co  0.45730701  0.90609788  0.62019231     0.73890
C627        C  0.44234069  0.91705029  0.55791486    -0.06940
C628        C  0.64810426  0.93088069  0.61083703    -0.06500
N629        N  0.54731259  0.76866439  0.63020094    -0.26030
N630        N  0.54509712  0.99909024  0.60406055    -0.46790
H631        H  0.57828962  0.85893812  0.53258786     0.06860
C632        C  0.39531586  0.79572741  0.64093272    -0.06920
Cl633      Cl  0.52168137  0.86348306  0.62505124    -0.49920
C634        C  0.43161268  0.92409080  0.70112311     0.42610
H635        H  0.58600244  0.72166216  0.61227368     0.06820
N636        N  0.38017526  0.84972384  0.61388466    -0.46630
C637        C  0.92632972  0.02763459  0.30870607     0.42460
N638        N  0.98077270  0.03414337  0.33455914     0.01350
C639        C  0.99472832  0.09191618  0.46226119    -0.06520
H640        H  0.88176869  0.18547658  0.40425669     0.06840
C641        C  0.01800454  0.23189885  0.35495890    -0.06880
Co642      Co  0.95717070  0.04426845  0.39059336     0.74180
N643        N  0.92061321  0.13026180  0.39831175    -0.26050
Co644      Co  0.98081735  0.14549273  0.41185188     0.74070
C645        C  0.98148826  0.25498877  0.36546684     0.42560
N646        N  0.06053648  0.13314274  0.32946623     0.00970
N647        N  0.98649833  0.19426665  0.38437168     0.01070
N648        N  0.97925607  0.02672620  0.44689411    -0.46900
H649        H  0.88185078  0.02848316  0.34502940     0.06830
N650        N  0.91209681  0.09185200  0.38988290     0.01360
N651        N  0.04060606  0.16000593  0.42530341     0.01100
C652        C  0.09050581  0.18163197  0.45078684     0.42700
N653        N  0.04727787  0.09496264  0.32320359    -0.25510
C654        C  0.00119957  0.96086926  0.40510024    -0.06430
N655        N  0.96919647  0.03096138  0.30969452    -0.46620
N656        N  0.04926465  0.17132198  0.44951667    -0.46840
C657        C  0.03418361  0.93528545  0.39144998     0.42480
N658        N  0.96944266  0.05628385  0.42965712     0.01350
N659        N  0.10234841  0.06228270  0.36376839    -0.25530
N660        N  0.94823570  0.03366768  0.35054519    -0.26020
N661        N  0.10928262  0.10061636  0.37305087     0.00990
H662        H  0.14467740  0.01060188  0.35541424     0.06880
H663        H  0.13764158  0.18495076  0.41626862     0.06910
N664        N  0.97888491  0.09473920  0.43790198    -0.26070
N665        N  0.01886461  0.19516678  0.36798818    -0.25690
N666        N  0.03506597  0.99789550  0.37540835     0.01350
C667        C  0.85231386  0.12399062  0.38781822     0.42750
C668        C  0.05112694  0.08859260  0.29777865    -0.06940
N669        N  0.07340495  0.16304414  0.40962242    -0.25680
H670        H  0.04239408  0.24297257  0.34175030     0.06900
N671        N  0.87193124  0.08692387  0.38343054    -0.46910
H672        H  0.04821179  0.05797835  0.28847276     0.06880
C673        C  0.17087726  0.07197979  0.37447432     0.42580
C674        C  0.91272104  0.02905480  0.33635848    -0.06430
Co675      Co  0.04167328  0.04676125  0.34904415     0.73820
N676        N  0.07846571  0.15197179  0.30893366    -0.46620
C677        C  0.99605244  0.04685866  0.46757948     0.42850
N678        N  0.05358836  0.96072213  0.37365051    -0.46610
Co679      Co  0.06607758  0.14879838  0.36967754     0.73890
C680        C  0.10654201  0.17746161  0.42384923    -0.06940
C681        C  0.88486079  0.15318052  0.39759723    -0.06500
N682        N  0.00317904  0.99761653  0.39190444    -0.26030
N683        N  0.96409165  0.22959672  0.38384581    -0.46790
H684        H  0.00760244  0.11740890  0.47383768     0.06860
C685        C  0.13971982  0.04156707  0.36372408    -0.06920
Cl686      Cl  0.01131820  0.09655571  0.38014724    -0.49920
C687        C  0.07291801  0.12544428  0.28815818     0.42610
H688        H  0.02863472  0.94652847  0.41434112     0.06820
N689        N  0.14876362  0.10709929  0.37994537    -0.46630
C690        C  0.08047378  0.53114675  0.29518229     0.42460
N691        N  0.05374577  0.57640868  0.32172457     0.01350
C692        C  0.99618225  0.55033337  0.45124336    -0.06520
H693        H  0.91373462  0.45999898  0.39114830     0.06840
C694        C  0.85235498  0.61033254  0.35584985    -0.06880
Co695      Co  0.04898107  0.54643103  0.37696031     0.74180
N696        N  0.96385637  0.50588452  0.38448978    -0.26050
Co697      Co  0.94802949  0.56489705  0.40279298     0.74070
C698        C  0.82890347  0.57636112  0.36859132     0.42560
N699        N  0.94458229  0.64489448  0.32491893     0.00970
N700        N  0.89437860  0.57337450  0.37997639     0.01070
N701        N  0.05891508  0.52699927  0.43616774    -0.46900
H702        H  0.08899084  0.48228240  0.32825130     0.06830
N703        N  0.00201727  0.50138081  0.37414579     0.01360
N704        N  0.93706637  0.62466887  0.42015253     0.01100
C705        C  0.93438428  0.67719894  0.44706702     0.42700
N706        N  0.98165200  0.63494816  0.31481132    -0.25510
C707        C  0.13054559  0.59936869  0.39090084    -0.06430
N708        N  0.06588032  0.57091858  0.29726657    -0.46620
N709        N  0.93778487  0.63450674  0.44544021    -0.46840
C710        C  0.14926510  0.63883585  0.38117936     0.42480
N711        N  0.03743935  0.54707606  0.41752734     0.01350
N712        N  0.02209512  0.69175077  0.35364724    -0.25530
N713        N  0.06039086  0.54303625  0.33650969    -0.26020
N714        N  0.98497139  0.69907705  0.36419407     0.00990
H715        H  0.07750676  0.73007257  0.34761881     0.06880
H716        H  0.92774433  0.72500476  0.41336142     0.06910
N717        N  0.99965413  0.55795638  0.42592907    -0.26070
N718        N  0.89167150  0.60725677  0.36517561    -0.25690
N719        N  0.08884417  0.62909106  0.36289275     0.01350
C720        C  0.97560312  0.43897856  0.37051861     0.42750
C721        C  0.97470720  0.61826847  0.29113310    -0.06940
N722        N  0.93375589  0.65846896  0.40515578    -0.25680
H723        H  0.84046141  0.63668492  0.34463114     0.06900
N724        N  0.00950118  0.46305187  0.36547238    -0.46910
H725        H  0.99824267  0.60306386  0.27935288     0.06880
C726        C  0.01929816  0.75707285  0.36909604     0.42580
C727        C  0.07787871  0.51261274  0.32147303    -0.06430
Co728      Co  0.03685098  0.63376299  0.33768947     0.73820
N729        N  0.91248874  0.63578806  0.30923436    -0.46620
C730        C  0.03462221  0.52889943  0.45809580     0.42850
N731        N  0.12182842  0.65501150  0.36364083    -0.46610
Co732      Co  0.93830795  0.65329386  0.36469099     0.73890
C733        C  0.93082550  0.69293077  0.42032773    -0.06940
C734        C  0.94435366  0.46764015  0.38291819    -0.06500
N735        N  0.09327726  0.59594402  0.37845725    -0.26030
N736        N  0.85712482  0.55455507  0.38321202    -0.46790
H737        H  0.96661936  0.55074941  0.46192500     0.06860
C738        C  0.04600093  0.72672992  0.35546553    -0.06920
Cl739      Cl  0.99317245  0.59933068  0.37057794    -0.49920
C740        C  0.92884632  0.61959463  0.28714286     0.42610
H741        H  0.14432091  0.57562256  0.40350601     0.06820
N742        N  0.98171623  0.73790901  0.37339302    -0.46630
C743        C  0.60073513  0.08123310  0.30456206     0.42460
N744        N  0.56326165  0.11306121  0.33304745     0.01350
C745        C  0.50543239  0.07281800  0.46051148    -0.06520
H746        H  0.42179966  0.99791842  0.40351395     0.06840
C747        C  0.37276804  0.14801866  0.36486606    -0.06880
Co748      Co  0.56048955  0.07390408  0.38642063     0.74180
N749        N  0.47368467  0.03965209  0.39340438    -0.26050
Co750      Co  0.46367353  0.09794079  0.41336284     0.74070
C751        C  0.34961841  0.11023942  0.37338189     0.42560
N752        N  0.46286793  0.18779414  0.33835946     0.00970
N753        N  0.41135510  0.11136973  0.39096816     0.01070
N754        N  0.56314388  0.04006016  0.44516031    -0.46900
H755        H  0.61691240  0.02803054  0.33421187     0.06830
N756        N  0.51037407  0.03235832  0.38170532     0.01360
N757        N  0.46047725  0.15648152  0.43271429     0.01100
C758        C  0.48346652  0.20595292  0.45876491     0.42700
N759        N  0.49924271  0.17873850  0.32716310    -0.25510
C760        C  0.64395940  0.11604717  0.40182209    -0.06430
N761        N  0.57796559  0.11549544  0.30928475    -0.46620
N762        N  0.47657449  0.16379130  0.45630748    -0.46840
C763        C  0.67019741  0.14996539  0.39099664     0.42480
N764        N  0.54842162  0.06787209  0.42761724     0.01350
N765        N  0.54375694  0.22595189  0.36819562    -0.25530
N766        N  0.57375141  0.07820821  0.34554190    -0.26020
N767        N  0.50694925  0.23424225  0.37884077     0.00990
H768        H  0.59532980  0.26542133  0.35522405     0.06880
H769        H  0.47013978  0.25622988  0.42739368     0.06910
N770        N  0.51308245  0.08429825  0.43619820    -0.26070
N771        N  0.40967517  0.14659481  0.37750899    -0.25690
N772        N  0.60654744  0.15473275  0.37558040     0.01350
C773        C  0.47908407  0.97204248  0.38060904     0.42750
C774        C  0.49221248  0.17529167  0.30118762    -0.06940
N775        N  0.45712761  0.19161420  0.41909993    -0.25680
H776        H  0.36379800  0.17326189  0.35197687     0.06900
N777        N  0.51458596  0.99290161  0.37388329    -0.46910
H778        H  0.51599628  0.16636353  0.28719948     0.06880
C779        C  0.53834679  0.29442320  0.37675960     0.42580
C780        C  0.59910258  0.05596401  0.32904926    -0.06430
Co781      Co  0.55363387  0.16839905  0.35091675     0.73820
N782        N  0.43112360  0.19082025  0.32164228    -0.46620
C783        C  0.53773423  0.04292003  0.46690063     0.42850
N784        N  0.64470027  0.17269324  0.37486423    -0.46610
Co785      Co  0.45816305  0.19058868  0.37854059     0.73890
C786        C  0.46792662  0.22440335  0.43433783    -0.06940
C787        C  0.45140589  0.00316086  0.39338865    -0.06500
N788        N  0.60641510  0.12029000  0.39040365    -0.26030
N789        N  0.37605224  0.08879560  0.38935136    -0.46790
H790        H  0.47463253  0.07585611  0.46951866     0.06860
C791        C  0.56609712  0.26199050  0.36598679    -0.06920
Cl792      Cl  0.50928856  0.13236245  0.38215331    -0.49920
C793        C  0.44642405  0.18352202  0.29747386     0.42610
H794        H  0.65349868  0.08853125  0.41291353     0.06820
N795        N  0.50226900  0.27472532  0.38387913    -0.46630
C796        C  0.41114533  0.60436514  0.29943617     0.42460
N797        N  0.46387313  0.59157240  0.32489472     0.01350
C798        C  0.44993889  0.59879650  0.45948550    -0.06520
H799        H  0.36086466  0.71447382  0.40937413     0.06840
C800        C  0.50962014  0.76687793  0.37071867    -0.06880
Co801      Co  0.43332894  0.57890460  0.37986294     0.74180
N802        N  0.39873832  0.66179599  0.39723029    -0.26050
Co803      Co  0.45805139  0.66837429  0.41500048     0.74070
C804        C  0.47267115  0.78917104  0.38062160     0.42560
N805        N  0.55223544  0.68197007  0.33740758     0.00970
N806        N  0.47144386  0.72483777  0.39446886     0.01070
N807        N  0.43344235  0.54147593  0.43509533    -0.46900
H808        H  0.36311888  0.59119599  0.33194179     0.06830
N809        N  0.38996434  0.62707324  0.38415660     0.01360
N810        N  0.51632931  0.67391669  0.43282542     0.01100
C811        C  0.56319929  0.68825615  0.46201131     0.42700
N812        N  0.54026595  0.64862334  0.32379751    -0.25510
C813        C  0.47647987  0.49179617  0.38506626    -0.06430
N814        N  0.45395598  0.60350420  0.30080299    -0.46620
N815        N  0.52183662  0.68008492  0.45810771    -0.46840
C816        C  0.51377434  0.47194386  0.37381991     0.42480
N817        N  0.43821364  0.57570705  0.42040541     0.01350
N818        N  0.58241194  0.59534531  0.36165672    -0.25530
N819        N  0.42992802  0.58527963  0.33948327    -0.26020
N820        N  0.59173527  0.62825973  0.37644316     0.00990
H821        H  0.61772982  0.54074885  0.34984914     0.06880
H822        H  0.61511403  0.69557168  0.43051726     0.06910
N823        N  0.44765381  0.60989103  0.43409200    -0.26070
N824        N  0.50661729  0.72792468  0.38051548    -0.25690
N825        N  0.51074524  0.53588884  0.36074014     0.01350
C826        C  0.33035825  0.65991979  0.38523205     0.42750
C827        C  0.55140146  0.65424255  0.29874856    -0.06940
N828        N  0.55151704  0.67842210  0.41931751    -0.25680
H829        H  0.53617221  0.77907130  0.35964252     0.06900
N830        N  0.34998753  0.62467085  0.37694374    -0.46910
H831        H  0.55032196  0.63006528  0.28380959     0.06880
C832        C  0.64766869  0.58962909  0.37813387     0.42580
C833        C  0.39532502  0.59137065  0.32488479    -0.06430
Co834      Co  0.52418220  0.59228046  0.34219193     0.73820
N835        N  0.57334376  0.70988444  0.32284668    -0.46620
C836        C  0.43985303  0.55345475  0.46009271     0.42850
N837        N  0.53350017  0.50103312  0.35893758    -0.46610
Co838      Co  0.55098598  0.67965748  0.37851277     0.73890
C839        C  0.58306553  0.68743072  0.43606456    -0.06940
C840        C  0.36317292  0.68505902  0.39883970    -0.06500
N841        N  0.47702879  0.53115449  0.37555783    -0.26030
N842        N  0.45071507  0.76128523  0.39559372    -0.46790
H843        H  0.45773925  0.61966949  0.47550185     0.06860
C844        C  0.61581780  0.56921135  0.36136930    -0.06920
Cl845      Cl  0.49159565  0.63000948  0.37883707    -0.49920
C846        C  0.57294181  0.69511120  0.29797527     0.42610
H847        H  0.45235301  0.47860274  0.39766486     0.06820
N848        N  0.63021344  0.62623704  0.38639181    -0.46630
C849        C  0.43818497  0.90472446  0.37769721    -0.05780
C850        C  0.47702625  0.92514962  0.38264728     0.00150
C851        C  0.51314795  0.90034816  0.38917253    -0.08420
C852        C  0.50894593  0.85625030  0.38975080    -0.05800
C853        C  0.47099264  0.83579381  0.38326186     0.00140
C854        C  0.43473918  0.86011957  0.37741522    -0.08330
C855        C  0.39342259  0.83895790  0.36976524     0.62050
H856        H  0.41094389  0.92398516  0.37299511     0.12740
H857        H  0.53616801  0.83700430  0.39449971     0.12750
C858        C  0.55657589  0.91928608  0.39508733     0.62280
F859        F  0.36249244  0.86823534  0.36361905    -0.22880
F860        F  0.37883463  0.81437411  0.39026037    -0.20210
F861        F  0.39976998  0.81354926  0.34811723    -0.19890
F862        F  0.55312221  0.95149869  0.41313854    -0.19940
F863        F  0.57444763  0.93477865  0.37231652    -0.20270
F864        F  0.58415655  0.88965675  0.40540212    -0.22940
C865        C  0.56195879  0.41145722  0.37836513    -0.05780
C866        C  0.52174412  0.42662375  0.37144455     0.00150
C867        C  0.49096451  0.39877044  0.36097750    -0.08420
C868        C  0.49965914  0.35563645  0.36115108    -0.05800
C869        C  0.53799200  0.33981052  0.37082479     0.00140
C870        C  0.57102317  0.36792048  0.37774996    -0.08330
C871        C  0.61529957  0.35237455  0.38389889     0.62050
H872        H  0.58592639  0.43394421  0.38455925     0.12740
H873        H  0.47545574  0.33357752  0.35471260     0.12750
C874        C  0.44895125  0.41372072  0.34977323     0.62280
F875        F  0.64147084  0.38491360  0.39226344    -0.22880
F876        F  0.63282638  0.33509945  0.36160181    -0.20210
F877        F  0.61418442  0.32194921  0.40323968    -0.19890
F878        F  0.45515518  0.44846469  0.33374145    -0.19940
F879        F  0.42166909  0.42413606  0.36982617    -0.20270
F880        F  0.42959962  0.38255779  0.33489453    -0.22940
C881        C  0.75864798  0.54168029  0.37291916    -0.05780
C882        C  0.78331422  0.57854151  0.37499718     0.00150
C883        C  0.76361527  0.61694321  0.38253350    -0.08420
C884        C  0.71946916  0.61855373  0.38293677    -0.05800
C885        C  0.69417266  0.58252542  0.37897610     0.00140
C886        C  0.71422336  0.54265477  0.37594756    -0.08330
C887        C  0.69009660  0.50109805  0.37657148     0.62050
H888        H  0.77427820  0.51206918  0.36853701     0.12740
H889        H  0.70462424  0.64887718  0.38633692     0.12750
C890        C  0.78750693  0.65675828  0.39066017     0.62280
F891        F  0.71610669  0.46840385  0.38463467    -0.22880
F892        F  0.67514963  0.49161429  0.35186916    -0.20210
F893        F  0.65666423  0.50309784  0.39399077    -0.19890
F894        F  0.79383166  0.68248079  0.36912873    -0.19940
F895        F  0.82591598  0.64723684  0.40219563    -0.20270
F896        F  0.76445836  0.67934068  0.40892647    -0.22940
C897        C  0.21226903  0.67361685  0.40062718    -0.05780
C898        C  0.19493694  0.64863384  0.38066060     0.00150
C899        C  0.22136069  0.63273425  0.36074352    -0.08420
C900        C  0.26495826  0.64099312  0.36216494    -0.05800
C901        C  0.28332601  0.66348534  0.38308691     0.00140
C902        C  0.25627817  0.68163566  0.40224816    -0.08330
C903        C  0.27304993  0.70862845  0.42445187     0.62050
H904        H  0.19095513  0.68609582  0.41526410     0.12740
H905        H  0.28554267  0.62823779  0.34721970     0.12750
C906        C  0.20385431  0.60605888  0.33843839     0.62280
F907        F  0.24101291  0.72202548  0.44090460    -0.22880
F908        F  0.29248336  0.74429396  0.41430119    -0.20210
F909        F  0.30149803  0.68574953  0.43931451    -0.19890
F910        F  0.17566310  0.62958768  0.32378581    -0.19940
F911        F  0.18341403  0.57068308  0.34821716    -0.20270
F912        F  0.23554716  0.59225261  0.32195131    -0.22940
C913        C  0.73314871  0.10425733  0.38789438    -0.05780
C914        C  0.71697810  0.14558251  0.38781851     0.00150
C915        C  0.74559558  0.18004161  0.38601330    -0.08420
C916        C  0.78956574  0.17164010  0.38550468    -0.05800
C917        C  0.80555999  0.13011501  0.38703075     0.00140
C918        C  0.77654403  0.09565199  0.38855145    -0.08330
C919        C  0.79019738  0.04976104  0.39207784     0.62050
H920        H  0.71125875  0.07794703  0.38763709     0.12740
H921        H  0.81183053  0.19765455  0.38404899     0.12750
C922        C  0.72989570  0.22526412  0.38495806     0.62280
F923        F  0.75616871  0.02284389  0.39628470    -0.22880
F924        F  0.81657742  0.04627263  0.41358743    -0.20210
F925        F  0.81073491  0.03579875  0.36990357    -0.19890
F926        F  0.70457755  0.23336002  0.40641584    -0.19940
F927        F  0.70671159  0.23136848  0.36233178    -0.20270
F928        F  0.76298037  0.25415143  0.38504123    -0.22940
C929        C  0.23049951  0.11757234  0.36313795    -0.05780
C930        C  0.21709460  0.07646575  0.36960083     0.00150
C931        C  0.24788587  0.04547003  0.37525440    -0.08420
C932        C  0.29106869  0.05751782  0.37464901    -0.05800
C933        C  0.30384115  0.09994336  0.37062713     0.00140
C934        C  0.27229698  0.13101818  0.36610665    -0.08330
C935        C  0.27998737  0.17863980  0.36707537     0.62050
H936        H  0.20704715  0.14078256  0.35755064     0.12740
H937        H  0.31520352  0.03403523  0.37837692     0.12750
C938        C  0.23546630  0.00064072  0.38254343     0.62280
F939        F  0.24285346  0.20058681  0.37167813    -0.22880
F940        F  0.29587655  0.19258238  0.34342992    -0.20210
F941        F  0.30714213  0.18900876  0.38734285    -0.19890
F942        F  0.21613659  0.98128114  0.36144880    -0.19940
F943        F  0.20783783  0.00112595  0.40351151    -0.20270
F944        F  0.27028736  0.97666790  0.38954383    -0.22940
C945        C  0.06485258  0.86346640  0.39005726    -0.05780
C946        C  0.02977744  0.88934637  0.38535782     0.00150
C947        C  0.99254365  0.87210510  0.37402856    -0.08420
C948        C  0.99159185  0.82882774  0.36848330    -0.05800
C949        C  0.02621885  0.80256264  0.37362855     0.00140
C950        C  0.06377728  0.81988234  0.38455084    -0.08330
C951        C  0.10215842  0.79299092  0.39094077     0.62050
H952        H  0.09312638  0.87781976  0.39822095     0.12740
H953        H  0.96323626  0.81488809  0.36016956     0.12750
C954        C  0.95392361  0.89874150  0.36748541     0.62280
F955        F  0.13157236  0.81504617  0.40576128    -0.22880
F956        F  0.12182081  0.78076644  0.36807400    -0.20210
F957        F  0.09010803  0.75756640  0.40503410    -0.19890
F958        F  0.96578066  0.93352205  0.35276080    -0.19940
F959        F  0.93447834  0.91187910  0.39025702    -0.20270
F960        F  0.92422975  0.87625159  0.35313802    -0.22940
C961        C  0.93936082  0.36852381  0.36780539    -0.05780
C962        C  0.97742597  0.39166628  0.36944834     0.00150
C963        C  0.01668289  0.36900212  0.36970639    -0.08420
C964        C  0.01571874  0.32473826  0.36844224    -0.05800
C965        C  0.97798787  0.30184633  0.36638577     0.00140
C966        C  0.93900541  0.32382583  0.36595322    -0.08330
C967        C  0.89748893  0.30017760  0.36265754     0.62050
H968        H  0.90983455  0.38578061  0.36748772     0.12740
H969        H  0.04507285  0.30728427  0.36912338     0.12750
C970        C  0.06019539  0.39012452  0.37107165     0.62280
F971        F  0.86366603  0.32750935  0.35984987    -0.22880
F972        F  0.89003179  0.27502322  0.38430014    -0.20210
F973        F  0.89934349  0.27498377  0.34057961    -0.19890
F974        F  0.06240427  0.41722342  0.39215968    -0.19940
F975        F  0.06782138  0.41203745  0.34816253    -0.20270
F976        F  0.09268120  0.36121036  0.37404732    -0.22940
C977        C  0.47675318  0.98942642  0.52132059    -0.05780
C978        C  0.47589141  0.94714346  0.51330870     0.00150
C979        C  0.49870525  0.93585272  0.49033774    -0.08420
C980        C  0.52255489  0.96688929  0.47688069    -0.05800
C981        C  0.52492318  0.00885815  0.48562867     0.00140
C982        C  0.50259066  0.01971573  0.50894109    -0.08330
C983        C  0.50542452  0.06279761  0.52201129     0.62050
H984        H  0.46106303  0.99792244  0.53938696     0.12740
H985        H  0.53864650  0.95832760  0.45906972     0.12750
C986        C  0.50003189  0.89098007  0.47984778     0.62280
F987        F  0.51443250  0.05758132  0.54828883    -0.22880
F988        F  0.46693558  0.08322148  0.51970252    -0.20210
F989        F  0.53690654  0.08812445  0.51152013    -0.19890
F990        F  0.48879826  0.89102690  0.45369055    -0.19940
F991        F  0.47258252  0.86404327  0.49286942    -0.20270
F992        F  0.54073517  0.87545014  0.48221619    -0.22940
C993        C  0.57009865  0.73037138  0.53131290    -0.05780
C994        C  0.59732141  0.76496600  0.52776143     0.00150
C995        C  0.61858326  0.77038851  0.50366988    -0.08420
C996        C  0.60877468  0.74273705  0.48296986    -0.05800
C997        C  0.57854976  0.71024980  0.48580814     0.00140
C998        C  0.56035500  0.70262662  0.51078327    -0.08330
C999        C  0.52928667  0.66672083  0.51588627     0.62050
H1000       H  0.55459580  0.72644221  0.55006289     0.12740
H1001       H  0.62305265  0.74799721  0.46402455     0.12750
C1002       C  0.65165037  0.80484512  0.49988475     0.62280
F1003       F  0.52540468  0.65834169  0.54236955    -0.22880
F1004       F  0.54289599  0.63002281  0.50387642    -0.20210
F1005       F  0.48975370  0.67757175  0.50647133    -0.19890
F1006       F  0.68100038  0.80319885  0.51995336    -0.19940
F1007       F  0.63263655  0.84408308  0.49976502    -0.20270
F1008       F  0.67313166  0.80021220  0.47647953    -0.22940
C1009       C  0.41607547  0.46505952  0.50915365    -0.05780
C1010       C  0.45247258  0.46633897  0.52484357     0.00150
C1011       C  0.48440931  0.49677348  0.51951349    -0.08420
C1012       C  0.47880453  0.52507822  0.49845749    -0.05800
C1013       C  0.44256791  0.52364345  0.48257723     0.00140
C1014       C  0.41032666  0.49350913  0.48814647    -0.08330
C1015       C  0.36927217  0.49254629  0.47268072     0.62050
H1016       H  0.39180854  0.44193090  0.51378314     0.12740
H1017       H  0.50306474  0.54828516  0.49398936     0.12750
C1018       C  0.52461523  0.49870081  0.53574088     0.62280
F1019       F  0.33994652  0.46503289  0.48356515    -0.22880
F1020       F  0.37705315  0.47950908  0.44735931    -0.20210
F1021       F  0.35155312  0.53250226  0.47224937    -0.19890
F1022       F  0.54386855  0.45947571  0.53588187    -0.19940
F1023       F  0.51498246  0.51017525  0.56109041    -0.20270
F1024       F  0.55328025  0.52791282  0.52593257    -0.22940
C1025       C  0.56441587  0.27626051  0.49593161    -0.05780
C1026       C  0.56392055  0.25713745  0.52047141     0.00150
C1027       C  0.54277761  0.21781289  0.52323659    -0.08420
C1028       C  0.51776539  0.20227077  0.50245947    -0.05800
C1029       C  0.51392090  0.22417884  0.47861464     0.00140
C1030       C  0.54084240  0.26027106  0.47468204    -0.08330
C1031       C  0.54614015  0.28279795  0.44878799     0.62050
H1032       H  0.58050349  0.30650317  0.49420800     0.12740
H1033       H  0.49963328  0.17345319  0.50517187     0.12750
C1034       C  0.54551513  0.19335881  0.54851946     0.62280
F1035       F  0.58132336  0.30904841  0.44894115    -0.22880
F1036       F  0.51138885  0.30794518  0.44383830    -0.20210
F1037       F  0.55211293  0.25348821  0.42915488    -0.19890
F1038       F  0.52778582  0.21664696  0.56837691    -0.19940
F1039       F  0.58759710  0.18559128  0.55407093    -0.20270
F1040       F  0.52440001  0.15499377  0.54725749    -0.22940
C1041       C  0.49297689  0.58821228  0.63698745    -0.05780
C1042       C  0.53275277  0.56920398  0.63328211     0.00150
C1043       C  0.56929839  0.59432779  0.63070125    -0.08420
C1044       C  0.56460283  0.63824269  0.63156145    -0.05800
C1045       C  0.52446868  0.65744783  0.63360010     0.00140
C1046       C  0.48785862  0.63208085  0.63648336    -0.08330
C1047       C  0.44354199  0.65061062  0.63811641     0.62050
H1048       H  0.46542463  0.56829430  0.63982141     0.12740
H1049       H  0.59269827  0.65770229  0.63037276     0.12750
C1050       C  0.61260270  0.57499928  0.62605178     0.62280
F1051       F  0.41251623  0.61954348  0.63747485    -0.22880
F1052       F  0.43657506  0.67742481  0.61715555    -0.20210
F1053       F  0.43900536  0.67270064  0.66125736    -0.19890
F1054       F  0.61117674  0.54901149  0.60430512    -0.19940
F1055       F  0.62453749  0.55154722  0.64763988    -0.20270
F1056       F  0.64335673  0.60555561  0.62173859    -0.22940
C1057       C  0.54774205  0.09363870  0.61414584    -0.05780
C1058       C  0.51102333  0.06992877  0.61057636     0.00150
C1059       C  0.47183225  0.09082452  0.60650739    -0.08420
C1060       C  0.46964733  0.13419710  0.61162886    -0.05800
C1061       C  0.50596298  0.15778920  0.61742783     0.00140
C1062       C  0.54656688  0.13774783  0.61594855    -0.08330
C1063       C  0.58947407  0.16003193  0.61613226     0.62050
H1064       H  0.57771519  0.07729562  0.61608558     0.12740
H1065       H  0.43918707  0.14988849  0.61084534     0.12750
C1066       C  0.43204548  0.06964516  0.59606448     0.62280
F1067       F  0.61834792  0.13770461  0.60120976    -0.22880
F1068       F  0.60485324  0.16194217  0.64142684    -0.20210
F1069       F  0.58775658  0.20009075  0.60547393    -0.19890
F1070       F  0.40347548  0.06378930  0.61623227    -0.19940
F1071       F  0.44030491  0.03130429  0.58422464    -0.20270
F1072       F  0.41358674  0.09527034  0.57731209    -0.22940
C1073       C  0.98436800  0.00791307  0.50729724    -0.05780
C1074       C  0.01373547  0.02478890  0.49026092     0.00150
C1075       C  0.05731789  0.01603098  0.49359937    -0.08420
C1076       C  0.06978084  0.98811431  0.51383990    -0.05800
C1077       C  0.03973212  0.96884355  0.53032169     0.00140
C1078       C  0.99608056  0.98118284  0.52765087    -0.08330
C1079       C  0.95905183  0.96745982  0.54447853     0.62050
H1080       H  0.95112837  0.01523807  0.50427889     0.12740
H1081       H  0.10263990  0.97893870  0.51574167     0.12750
C1082       C  0.08979771  0.03432539  0.47495251     0.62280
F1083       F  0.93556190  0.00242301  0.55174287    -0.22880
F1084       F  0.97140365  0.94808908  0.56688209    -0.20210
F1085       F  0.93325292  0.94019629  0.53044684    -0.19890
F1086       F  0.08714753  0.07791698  0.47507412    -0.19940
F1087       F  0.08201143  0.01975184  0.44990417    -0.20270
F1088       F  0.13063386  0.02317806  0.48190335    -0.22940
C1089       C  0.91048522  0.69264987  0.49218825    -0.05780
C1090       C  0.93825063  0.70234029  0.47168113     0.00150
C1091       C  0.96905688  0.73477909  0.47539239    -0.08420
C1092       C  0.97039177  0.75656115  0.49952637    -0.05800
C1093       C  0.94266138  0.74677855  0.52012143     0.00140
C1094       C  0.91142416  0.71470810  0.51617694    -0.08330
C1095       C  0.87824213  0.70363072  0.53659948     0.62050
H1096       H  0.88750432  0.66756498  0.48918129     0.12740
H1097       H  0.99385621  0.78111542  0.50269257     0.12750
C1098       C  0.00159407  0.74557294  0.45452656     0.62280
F1099       F  0.84334969  0.68419095  0.52532605    -0.22880
F1100       F  0.86398879  0.73962634  0.54911762    -0.20210
F1101       F  0.89517312  0.67593920  0.55467206    -0.19890
F1102       F  0.98232235  0.76678699  0.43416493    -0.19940
F1103       F  0.02021838  0.70904231  0.44521029    -0.20270
F1104       F  0.03350027  0.77136784  0.46419502    -0.22940
C1105       C  0.78572665  0.86051196  0.61341020    -0.05780
C1106       C  0.81184774  0.88682923  0.62832278     0.00150
C1107       C  0.79618839  0.92581454  0.63787094    -0.08420
C1108       C  0.75283805  0.93480277  0.63465833    -0.05800
C1109       C  0.72628094  0.90722541  0.62079607     0.00140
C1110       C  0.74363200  0.87113725  0.60832160    -0.08330
C1111       C  0.71807543  0.84160157  0.59092558     0.62050
H1112       H  0.79868180  0.83174895  0.60515406     0.12740
H1113       H  0.73898716  0.96216996  0.64401879     0.12750
C1114       C  0.82482958  0.95681974  0.65208298     0.62280
F1115       F  0.74272438  0.82782579  0.57027125    -0.22880
F1116       F  0.68308671  0.86138851  0.58034420    -0.20210
F1117       F  0.70502943  0.80683117  0.60528202    -0.19890
F1118       F  0.85609986  0.97105430  0.63530481    -0.19940
F1119       F  0.84342276  0.93714355  0.67332271    -0.20270
F1120       F  0.80276215  0.99167694  0.66102233    -0.22940
C1121       C  0.29377970  0.84974876  0.63556879    -0.05780
C1122       C  0.31479949  0.81251802  0.62834412     0.00150
C1123       C  0.29021207  0.77576255  0.62323602    -0.08420
C1124       C  0.24527219  0.77849282  0.62392845    -0.05800
C1125       C  0.22434413  0.81648506  0.63009745     0.00140
C1126       C  0.24938829  0.85198162  0.63769768    -0.08330
C1127       C  0.23128270  0.89287082  0.64846758     0.62050
H1128       H  0.31252118  0.87766595  0.63997811     0.12740
H1129       H  0.22610462  0.75127939  0.61874749     0.12750
C1130       C  0.31136641  0.73444922  0.61606385     0.62280
F1131       F  0.25603231  0.90721552  0.66897741    -0.22880
F1132       F  0.19082733  0.88789985  0.65814157    -0.20210
F1133       F  0.23114912  0.92328607  0.62902786    -0.19890
F1134       F  0.33598521  0.72071060  0.63672248    -0.19940
F1135       F  0.33674494  0.74025119  0.59431642    -0.20270
F1136       F  0.28205232  0.70307254  0.61042618    -0.22940
C1137       C  0.02700445  0.51315778  0.50382495    -0.05780
C1138       C  0.03065343  0.49667164  0.47869294     0.00150
C1139       C  0.01393201  0.45586330  0.47339624    -0.08420
C1140       C  0.99165170  0.43424059  0.49318675    -0.05800
C1141       C  0.98689064  0.45142088  0.51827197     0.00140
C1142       C  0.00646368  0.49089992  0.52388212    -0.08330
C1143       C  0.00718416  0.50919697  0.55109145     0.62050
H1144       H  0.03907553  0.54481573  0.50726601     0.12740
H1145       H  0.97988661  0.40248509  0.48969766     0.12750
C1146       C  0.02081919  0.43485633  0.44724868     0.62280
F1147       F  0.02821031  0.54767963  0.55173659    -0.22880
F1148       F  0.02826824  0.48236422  0.56781565    -0.20210
F1149       F  0.96611226  0.51479925  0.55967596    -0.19890
F1150       F  0.06384661  0.43211019  0.44271011    -0.19940
F1151       F  0.00207495  0.45832637  0.42776848    -0.20270
F1152       F  0.00379769  0.39444699  0.44635831    -0.22940
C1153       C  0.11597230  0.22095407  0.51816294    -0.05780
C1154       C  0.09252263  0.25868380  0.51801429     0.00150
C1155       C  0.07627123  0.27381477  0.49359587    -0.08420
C1156       C  0.08443750  0.25044477  0.47079423    -0.05800
C1157       C  0.10430952  0.21108870  0.47150330     0.00140
C1158       C  0.12203806  0.19680549  0.49532563    -0.08330
C1159       C  0.14699148  0.15621517  0.49774472     0.62050
H1160       H  0.12905280  0.20960451  0.53647160     0.12740
H1161       H  0.07128245  0.26065487  0.45225374     0.12750
C1162       C  0.04722717  0.31195681  0.49083939     0.62280
F1163       F  0.18610272  0.16505013  0.50871767    -0.22880
F1164       F  0.15377245  0.13703543  0.47383287    -0.20210
F1165       F  0.12552992  0.12835483  0.51390772    -0.19890
F1166       F  0.07104454  0.34870578  0.49051763    -0.19940
F1167       F  0.01790135  0.31302305  0.51087927    -0.20270
F1168       F  0.02440752  0.31065998  0.46769578    -0.22940
C1169       C  0.02682994  0.56598306  0.60953012    -0.05780
C1170       C  0.05650272  0.54833166  0.62667016     0.00150
C1171       C  0.08325137  0.57445637  0.64156024    -0.08420
C1172       C  0.07963412  0.61841038  0.63857153    -0.05800
C1173       C  0.04892407  0.63636984  0.62189010     0.00140
C1174       C  0.02257420  0.60966434  0.60655171    -0.08330
C1175       C  0.98890553  0.62659669  0.58789720     0.62050
H1176       H  0.00495197  0.54507334  0.59968742     0.12740
H1177       H  0.09932150  0.63876248  0.65044987     0.12750
C1178       C  0.11315048  0.55568615  0.66165732     0.62280
F1179       F  0.97226032  0.59554534  0.57197166    -0.22880
F1180       F  0.00625427  0.65737049  0.57182697    -0.20210
F1181       F  0.95540269  0.64301559  0.60192461    -0.19890
F1182       F  0.14129349  0.52881784  0.64941646    -0.19940
F1183       F  0.09016202  0.53301376  0.67999785    -0.20270
F1184       F  0.13610757  0.58657038  0.67467252    -0.22940
C1185       C  0.02154775  0.11404886  0.61769747    -0.05780
C1186       C  0.98684652  0.13781856  0.62669788     0.00150
C1187       C  0.95008008  0.11533005  0.63500275    -0.08420
C1188       C  0.95099257  0.07035714  0.63572482    -0.05800
C1189       C  0.98700851  0.04738164  0.62811644     0.00140
C1190       C  0.02219435  0.06975497  0.61770906    -0.08330
C1191       C  0.06050718  0.04757073  0.60596931     0.62050
H1192       H  0.04952404  0.13001989  0.61088534     0.12740
H1193       H  0.92384006  0.05275851  0.64281622     0.12750
C1194       C  0.91000956  0.13826020  0.64283231     0.62280
F1195       F  0.08598069  0.07509690  0.59185649    -0.22880
F1196       F  0.04729908  0.01617488  0.58898131    -0.20210
F1197       F  0.08508099  0.03027171  0.62561026    -0.19890
F1198       F  0.89807098  0.16576526  0.62312006    -0.19940
F1199       F  0.91691795  0.16064884  0.66565772    -0.20270
F1200       F  0.87674450  0.11045199  0.64711845    -0.22940
C1201       C  0.79809176  0.39131098  0.62907431    -0.05780
C1202       C  0.80938471  0.34816927  0.63172545     0.00150
C1203       C  0.77706720  0.31820874  0.63723215    -0.08420
C1204       C  0.73490526  0.33233275  0.63835052    -0.05800
C1205       C  0.72366368  0.37476265  0.63365192     0.00140
C1206       C  0.75577592  0.40509176  0.62972120    -0.08330
C1207       C  0.74536732  0.45135709  0.62519349     0.62050
H1208       H  0.82275087  0.41454579  0.62576265     0.12740
H1209       H  0.70981940  0.30971720  0.64219911     0.12750
C1210       C  0.78597658  0.27150802  0.64132943     0.62280
F1211       F  0.78123461  0.47524463  0.62000425    -0.22880
F1212       F  0.72635730  0.46781400  0.64725217    -0.20210
F1213       F  0.71815547  0.45527050  0.60412566    -0.19890
F1214       F  0.80536937  0.26579220  0.66528442    -0.19940
F1215       F  0.81158274  0.25631884  0.62155856    -0.20270
F1216       F  0.74916786  0.24753964  0.64130662    -0.22940
C1217       C  0.24552877  0.34045985  0.64814528    -0.05780
C1218       C  0.22922831  0.35457077  0.62423633     0.00150
C1219       C  0.25410456  0.35278307  0.60128149    -0.08420
C1220       C  0.29668693  0.34156179  0.60403077    -0.05800
C1221       C  0.31319386  0.32964279  0.62842575     0.00140
C1222       C  0.28703545  0.32703781  0.65058431    -0.08330
C1223       C  0.29989373  0.30714327  0.67640719     0.62050
H1224       H  0.22493123  0.33800023  0.66502999     0.12740
H1225       H  0.31772704  0.34306470  0.58731887     0.12750
C1226       C  0.23584212  0.36038436  0.57416307     0.62280
F1227       F  0.28719396  0.33251871  0.69693904    -0.22880
F1228       F  0.34298056  0.30056152  0.67853585    -0.20210
F1229       F  0.27952352  0.26852874  0.67875820    -0.19890
F1230       F  0.22327580  0.40197873  0.57171439    -0.19940
F1231       F  0.20144357  0.33394729  0.57003242    -0.20270
F1232       F  0.26521746  0.35230364  0.55471168    -0.22940
C1233       C  0.67825975  0.90439535  0.75007054    -0.05780
C1234       C  0.66101925  0.89969573  0.77502356     0.00150
C1235       C  0.62019017  0.88027791  0.77756132    -0.08420
C1236       C  0.59989117  0.86452601  0.75504265    -0.05800
C1237       C  0.61778553  0.86821350  0.73021419     0.00140
C1238       C  0.65682275  0.89098816  0.72747057    -0.08330
C1239       C  0.67612035  0.90389910  0.70143310     0.62050
H1240       H  0.70898454  0.91954432  0.74826692     0.12740
H1241       H  0.56964809  0.84847559  0.75666754     0.12750
C1242       C  0.59778732  0.87436382  0.80349755     0.62280
F1243       F  0.70148920  0.93951319  0.70405034    -0.22880
F1244       F  0.64480399  0.91408988  0.68367265    -0.20210
F1245       F  0.70138740  0.87173817  0.69201643    -0.19890
F1246       F  0.58311901  0.91289198  0.81231674    -0.19940
F1247       F  0.62523903  0.85653987  0.82132837    -0.20270
F1248       F  0.56297522  0.84776572  0.80147720    -0.22940
C1249       C  0.89906654  0.77510210  0.77860512    -0.05780
C1250       C  0.85702438  0.78661172  0.77346019     0.00150
C1251       C  0.84314743  0.78991817  0.74726912    -0.08420
C1252       C  0.87313432  0.78648695  0.72714727    -0.05800
C1253       C  0.91633337  0.77859215  0.73212129     0.00140
C1254       C  0.92895148  0.76994300  0.75832746    -0.08330
C1255       C  0.97313703  0.75543345  0.76550122     0.62050
H1256       H  0.90900759  0.77216969  0.79880755     0.12740
H1257       H  0.86276970  0.79141445  0.70720172     0.12750
C1258       C  0.79673364  0.79657415  0.74045292     0.62280
F1259       F  0.97381336  0.73662982  0.78997257    -0.22880
F1260       F  0.00026657  0.78976871  0.76610529    -0.20210
F1261       F  0.98740631  0.72579505  0.74772696    -0.19890
F1262       F  0.78478641  0.83757501  0.74593566    -0.19940
F1263       F  0.77180796  0.76887759  0.75473821    -0.20270
F1264       F  0.78891152  0.78924017  0.71419102    -0.22940
C1265       C  0.62751813  0.28126962  0.77688345    -0.05780
C1266       C  0.67125065  0.28644546  0.77340561     0.00150
C1267       C  0.68860013  0.28477986  0.74795772    -0.08420
C1268       C  0.66087450  0.28377570  0.72636089    -0.05800
C1269       C  0.61680535  0.28396540  0.72988931     0.00140
C1270       C  0.59983617  0.27983869  0.75535360    -0.08330
C1271       C  0.55254535  0.27493350  0.75959097     0.62050
H1272       H  0.61489907  0.28155290  0.79657285     0.12740
H1273       H  0.67335400  0.28614089  0.70668513     0.12750
C1274       C  0.73613902  0.28445421  0.74391189     0.62280
F1275       F  0.54286767  0.26762880  0.78561099    -0.22880
F1276       F  0.53771659  0.24104427  0.74510615    -0.20210
F1277       F  0.53177875  0.31108652  0.75170244    -0.19890
F1278       F  0.75340470  0.25080613  0.75749627    -0.19940
F1279       F  0.75381345  0.32165484  0.75305090    -0.20270
F1280       F  0.74667351  0.28015675  0.71777461    -0.22940
C1281       C  0.90210828  0.42996906  0.77274967    -0.05780
C1282       C  0.85795191  0.43105928  0.76846537     0.00150
C1283       C  0.84313232  0.43547816  0.74219174    -0.08420
C1284       C  0.87272814  0.43352606  0.72154527    -0.05800
C1285       C  0.91607585  0.42848129  0.72619682     0.00140
C1286       C  0.93138195  0.42883227  0.75211481    -0.08330
C1287       C  0.97861230  0.42784556  0.75791220     0.62050
H1288       H  0.91397856  0.42829113  0.79257452     0.12740
H1289       H  0.86187018  0.43309515  0.70144019     0.12750
C1290       C  0.79687441  0.44119267  0.73516249     0.62280
F1291       F  0.98704298  0.43481643  0.78413634    -0.22880
F1292       F  0.99889457  0.45912021  0.74364862    -0.20210
F1293       F  0.99528959  0.38900795  0.75125209    -0.19890
F1294       F  0.77883839  0.47177441  0.75087980    -0.19940
F1295       F  0.77574169  0.40313270  0.73790664    -0.20270
F1296       F  0.79189148  0.45423270  0.70947542    -0.22940
C1297       C  0.76165163  0.64772560  0.88870980    -0.05780
C1298       C  0.72355359  0.66694816  0.88132873     0.00150
C1299       C  0.68918636  0.64069130  0.87403115    -0.08420
C1300       C  0.69479237  0.59605114  0.87381667    -0.05800
C1301       C  0.73345518  0.57690270  0.88122334     0.00140
C1302       C  0.76678315  0.60375983  0.89030433    -0.08330
C1303       C  0.80823375  0.58735033  0.90161368     0.62050
H1304       H  0.78873315  0.66781033  0.89234925     0.12740
H1305       H  0.66904803  0.57593270  0.86738508     0.12750
C1306       C  0.64777056  0.66005338  0.86526586     0.62280
F1307       F  0.83333406  0.61951407  0.91163467    -0.22880
F1308       F  0.83152731  0.56731382  0.88242028    -0.20210
F1309       F  0.79969148  0.55983977  0.92199958    -0.19890
F1310       F  0.65460988  0.68542062  0.84360589    -0.19940
F1311       F  0.63136910  0.68439608  0.88525640    -0.20270
F1312       F  0.61810729  0.62948625  0.85869298    -0.22940
C1313       C  0.79073239  0.09738907  0.84878702    -0.05780
C1314       C  0.81209135  0.07625070  0.86885654     0.00150
C1315       C  0.83323856  0.09954910  0.88844020    -0.08420
C1316       C  0.82987866  0.14391812  0.88832854    -0.05800
C1317       C  0.80505013  0.16513393  0.86961646     0.00140
C1318       C  0.78674835  0.14165692  0.84873321    -0.08330
C1319       C  0.76157637  0.16247954  0.82696215     0.62050
H1320       H  0.77446907  0.07862792  0.83413343     0.12740
H1321       H  0.84436593  0.16194175  0.90395179     0.12750
C1322       C  0.85757918  0.07713227  0.90989833     0.62280
F1323       F  0.75519962  0.13521607  0.80613372    -0.22880
F1324       F  0.78301233  0.19762849  0.81761896    -0.20210
F1325       F  0.72232629  0.17434903  0.83627688    -0.19890
F1326       F  0.88792007  0.05132573  0.89883715    -0.19940
F1327       F  0.83013148  0.05264612  0.92460335    -0.20270
F1328       F  0.87776986  0.10535794  0.92646972    -0.22940
C1329       C  0.13234834  0.84683633  0.77163142    -0.05780
C1330       C  0.17346024  0.83582891  0.76377853     0.00150
C1331       C  0.18838606  0.84996713  0.73912474    -0.08420
C1332       C  0.16196966  0.87495619  0.72336537    -0.05800
C1333       C  0.12083350  0.88555435  0.73112715     0.00140
C1334       C  0.10618044  0.87236060  0.75598982    -0.08330
C1335       C  0.06322087  0.88654623  0.76602465     0.62050
H1336       H  0.12224793  0.83827529  0.79112052     0.12740
H1337       H  0.17263379  0.88393610  0.70408085     0.12750
C1338       C  0.23233172  0.84013641  0.72889198     0.62280
F1339       F  0.05649585  0.87426365  0.79165892    -0.22880
F1340       F  0.03104794  0.86960088  0.75094365    -0.20210
F1341       F  0.06101919  0.93019371  0.76489046    -0.19890
F1342       F  0.22912387  0.82271550  0.70414909    -0.19940
F1343       F  0.25380531  0.81169047  0.74456231    -0.20270
F1344       F  0.25567613  0.87717905  0.72737342    -0.22940
C1345       C  0.34278527  0.95613427  0.74789351    -0.05780
C1346       C  0.36223815  0.94848570  0.77229714     0.00150
C1347       C  0.40620961  0.93860248  0.77265218    -0.08420
C1348       C  0.42799366  0.93496420  0.74872691    -0.05800
C1349       C  0.40786649  0.93974886  0.72442823     0.00140
C1350       C  0.36470632  0.95168633  0.72391950    -0.08330
C1351       C  0.34133676  0.95765489  0.69828419     0.62050
H1352       H  0.30961804  0.96450982  0.74763742     0.12740
H1353       H  0.46109798  0.92618193  0.74872580     0.12750
C1354       C  0.43013026  0.92944257  0.79779685     0.62280
F1355       F  0.29937970  0.96849301  0.70213251    -0.22880
F1356       F  0.34230410  0.92049502  0.68404805    -0.20210
F1357       F  0.36038961  0.98968932  0.68404493    -0.19890
F1358       F  0.41142041  0.89560870  0.81054394    -0.19940
F1359       F  0.42989458  0.96486092  0.81363316    -0.20270
F1360       F  0.47203397  0.91898874  0.79329215    -0.22940
C1361       C  0.53953680  0.88870168  0.89215429    -0.05780
C1362       C  0.55900565  0.85397598  0.88038280     0.00150
C1363       C  0.53442339  0.82088312  0.86954203    -0.08420
C1364       C  0.49032009  0.82598030  0.86870655    -0.05800
C1365       C  0.47113044  0.86206870  0.87916783     0.00140
C1366       C  0.49565172  0.89285175  0.89250638    -0.08330
C1367       C  0.47635552  0.92945680  0.90762120     0.62050
H1368       H  0.55919667  0.91296913  0.90101303     0.12740
H1369       H  0.47043713  0.80202820  0.85973864     0.12750
C1370       C  0.55431164  0.78065489  0.85910818     0.62280
F1371       F  0.50516673  0.94700161  0.92497458    -0.22880
F1372       F  0.44191293  0.91567266  0.92204881    -0.20210
F1373       F  0.46389555  0.96092024  0.89055815    -0.19890
F1374       F  0.57319711  0.75890573  0.87940569    -0.19940
F1375       F  0.58451796  0.79008089  0.84049820    -0.20270
F1376       F  0.52451690  0.75419280  0.84772581    -0.22940
C1377       C  0.03844297  0.92243918  0.88657875    -0.05780
C1378       C  0.05840689  0.88792243  0.87461975     0.00150
C1379       C  0.03337496  0.85535853  0.86312967    -0.08420
C1380       C  0.98923017  0.85741335  0.86550517    -0.05800
C1381       C  0.96933434  0.89127990  0.87797702     0.00140
C1382       C  0.99395675  0.92465145  0.88851530    -0.08330
C1383       C  0.97330991  0.96142303  0.90253677     0.62050
H1384       H  0.05805401  0.94710666  0.89500365     0.12740
H1385       H  0.96973945  0.83227211  0.85746762     0.12750
C1386       C  0.05205249  0.81798205  0.84849425     0.62280
F1387       F  0.00300900  0.98872575  0.91322230    -0.22880
F1388       F  0.94797102  0.94637729  0.92257545    -0.20210
F1389       F  0.94876246  0.98411622  0.88515820    -0.19890
F1390       F  0.06229813  0.78635471  0.86602929    -0.19940
F1391       F  0.08775349  0.82980319  0.83469600    -0.20270
F1392       F  0.02337483  0.80160633  0.83062315    -0.22940
C1393       C  0.15347188  0.41376903  0.74022541    -0.05780
C1394       C  0.14686346  0.40375250  0.76669606     0.00150
C1395       C  0.11366626  0.37467756  0.77263399    -0.08420
C1396       C  0.09358978  0.35188386  0.75229368    -0.05800
C1397       C  0.10312639  0.35885713  0.72595744     0.00140
C1398       C  0.13073389  0.39332322  0.71979966    -0.08330
C1399       C  0.13643882  0.40922986  0.69207085     0.62050
H1400       H  0.17834171  0.43618114  0.73542775     0.12740
H1401       H  0.07130564  0.32688143  0.75709446     0.12750
C1402       C  0.10271290  0.36215461  0.80020703     0.62280
F1403       F  0.15198497  0.45027269  0.69178431    -0.22880
F1404       F  0.09813094  0.40915278  0.67891752    -0.20210
F1405       F  0.16485642  0.38394412  0.67910326    -0.19890
F1406       F  0.10921133  0.39503682  0.81751135    -0.19940
F1407       F  0.12729133  0.32794020  0.80710214    -0.20270
F1408       F  0.06043099  0.35083151  0.80175530    -0.22940
C1409       C  0.35459519  0.37417501  0.75837935    -0.05780
C1410       C  0.37755297  0.35497689  0.77868924     0.00150
C1411       C  0.42283873  0.35723494  0.77747087    -0.08420
C1412       C  0.44217422  0.37423610  0.75482307    -0.05800
C1413       C  0.41893771  0.39221775  0.73424658     0.00140
C1414       C  0.37407703  0.39505322  0.73721823    -0.08330
C1415       C  0.34558583  0.42112459  0.71952093     0.62050
H1416       H  0.32036658  0.37389239  0.75936858     0.12740
H1417       H  0.47628905  0.37414610  0.75316608     0.12750
C1418       C  0.45165145  0.34352327  0.79967335     0.62280
F1419       F  0.30810511  0.43168011  0.73191906    -0.22880
F1420       F  0.33502985  0.39816873  0.69753298    -0.20210
F1421       F  0.36520878  0.45869963  0.71264299    -0.19890
F1422       F  0.44418246  0.30157173  0.80587418    -0.19940
F1423       F  0.44500650  0.36938357  0.82103141    -0.20270
F1424       F  0.49410422  0.34732417  0.79341189    -0.22940
C1425       C  0.49088096  0.42655856  0.86526065    -0.06260
C1426       C  0.47042672  0.41057255  0.88744956     0.00150
C1427       C  0.49460958  0.39396627  0.90829873    -0.08420
C1428       C  0.53889531  0.39212798  0.90567652    -0.05800
C1429       C  0.55955989  0.40579560  0.88282578     0.00140
C1430       C  0.53524072  0.42441814  0.86240090    -0.08330
C1431       C  0.55519379  0.43989502  0.83710627     0.62050
H1432       H  0.47144221  0.43897619  0.84959926     0.12740
H1433       H  0.55772092  0.37859653  0.92126331     0.12750
C1434       C  0.47348430  0.37723077  0.93289721     0.62280
F1435       F  0.52520718  0.45460792  0.81958118    -0.22880
F1436       F  0.57668952  0.40713640  0.82516908    -0.20210
F1437       F  0.58288164  0.47282381  0.84234231    -0.19890
F1438       F  0.44762003  0.34324115  0.92679041    -0.19940
F1439       F  0.44935498  0.40879698  0.94407765    -0.20270
F1440       F  0.50280238  0.36389142  0.95125427    -0.22940
C1441       C  0.99355363  0.34800950  0.89747005    -0.05780
C1442       C  0.97199800  0.33361622  0.87522009     0.00150
C1443       C  0.99496708  0.31543237  0.85440486    -0.08420
C1444       C  0.03955308  0.31456996  0.85586990    -0.05800
C1445       C  0.06136616  0.33319341  0.87688669     0.00140
C1446       C  0.03808345  0.34814914  0.89870462    -0.08330
C1447       C  0.06000079  0.36410030  0.92325925     0.62050
H1448       H  0.97523359  0.36102999  0.91343137     0.12740
H1449       H  0.05769950  0.30148017  0.83991453     0.12750
C1450       C  0.97217647  0.29801330  0.83061641     0.62280
F1451       F  0.03198163  0.36761600  0.94394350    -0.22880
F1452       F  0.07754671  0.40353210  0.91874535    -0.20210
F1453       F  0.09152880  0.33624096  0.93062042    -0.19890
F1454       F  0.95053789  0.33022296  0.81816128    -0.19940
F1455       F  0.94364302  0.26712832  0.83833510    -0.20270
F1456       F  0.99996267  0.28023039  0.81287129    -0.22940
C1457       C  0.29115244  0.60357154  0.88798117    -0.05780
C1458       C  0.30197294  0.58055259  0.86568144     0.00150
C1459       C  0.31925356  0.60221700  0.84387012    -0.08420
C1460       C  0.32192158  0.64703062  0.84437470    -0.05800
C1461       C  0.30990364  0.67030283  0.86656648     0.00140
C1462       C  0.29544821  0.64788723  0.88890355    -0.08330
C1463       C  0.28574811  0.67079160  0.91390949     0.62050
H1464       H  0.27895032  0.58641086  0.90472213     0.12740
H1465       H  0.33314526  0.66419638  0.82739087     0.12750
C1466       C  0.33578071  0.57769242  0.82063101     0.62280
F1467       F  0.27147069  0.64390355  0.93328757    -0.22880
F1468       F  0.25505807  0.70103445  0.90958485    -0.20210
F1469       F  0.32265170  0.68946595  0.92259725    -0.19890
F1470       F  0.30305086  0.55548346  0.80897285    -0.19940
F1471       F  0.36635464  0.54949510  0.82898708    -0.20270
F1472       F  0.35386013  0.60407965  0.80209172    -0.22940
C1473       C  0.26808977  0.14931645  0.86974514    -0.05780
C1474       C  0.23207974  0.17185094  0.87701115     0.00150
C1475       C  0.19332549  0.15044625  0.88138027    -0.08420
C1476       C  0.19312316  0.10591151  0.88081119    -0.05800
C1477       C  0.23014285  0.08332055  0.87526500     0.00140
C1478       C  0.26777653  0.10534067  0.86810582    -0.08330
C1479       C  0.30782378  0.08338798  0.85865124     0.62050
H1480       H  0.29695341  0.16660383  0.86544463     0.12740
H1481       H  0.16450813  0.08842486  0.88540185     0.12750
C1482       C  0.15298628  0.17452623  0.88709448     0.62280
F1483       F  0.33490478  0.11130506  0.84606024    -0.22880
F1484       F  0.29770934  0.05176186  0.84099765    -0.20210
F1485       F  0.32950828  0.06642926  0.87967388    -0.19890
F1486       F  0.14263293  0.19939209  0.86579438    -0.19940
F1487       F  0.15875336  0.20007116  0.90875977    -0.20270
F1488       F  0.11925639  0.14755585  0.89198225    -0.22940
C1489       C  0.79513820  0.49330616  0.98203105    -0.05780
C1490       C  0.83014062  0.46672831  0.97994606     0.00150
C1491       C  0.86267873  0.46859222  0.99892800    -0.08420
C1492       C  0.85802525  0.49619822  0.02042233    -0.05800
C1493       C  0.82207269  0.52175422  0.02297160     0.00140
C1494       C  0.79056283  0.52115084  0.00306158    -0.08330
C1495       C  0.75053865  0.54753312  0.00429810     0.62050
H1496       H  0.77080201  0.49173322  0.96707938     0.12740
H1497       H  0.88151209  0.49677611  0.03586420     0.12750
C1498       C  0.90188990  0.44157017  0.99624890     0.62280
F1499       F  0.73514193  0.55599330  0.97947246    -0.22880
F1500       F  0.75830819  0.58582101  0.01633303    -0.20210
F1501       F  0.71974894  0.52576044  0.01810660    -0.19890
F1502       F  0.92210488  0.45103656  0.97296788    -0.19940
F1503       F  0.89051257  0.39928276  0.99631685    -0.20270
F1504       F  0.93017738  0.44843111  0.01651728    -0.22940
C1505       C  0.74667664  0.77299125  0.99718103    -0.05780
C1506       C  0.77358149  0.75176393  0.97939333     0.00150
C1507       C  0.77059364  0.70687950  0.97862624    -0.08420
C1508       C  0.74274447  0.68558978  0.99617035    -0.05800
C1509       C  0.71690000  0.70746072  0.01397629     0.00140
C1510       C  0.71681904  0.75212311  0.01287163    -0.08330
C1511       C  0.68679343  0.77802792  0.02969758     0.62050
H1512       H  0.74844263  0.80711890  0.99860666     0.12740
H1513       H  0.74265166  0.65159572  0.99708984     0.12750
C1514       C  0.79615116  0.68149965  0.95953230     0.62280
F1515       F  0.68573410  0.81998214  0.02188093    -0.22880
F1516       F  0.69907837  0.77693940  0.05563609    -0.20210
F1517       F  0.64623368  0.76176845  0.02752245    -0.19890
F1518       F  0.83882871  0.68928905  0.96327959    -0.19940
F1519       F  0.78439162  0.69328454  0.93473037    -0.20270
F1520       F  0.78910545  0.63842659  0.96209689    -0.22940
C1521       C  0.64619438  0.70122136  0.28013702    -0.05780
C1522       C  0.60252207  0.70799462  0.27671836     0.00150
C1523       C  0.58739544  0.71763291  0.25135174    -0.08420
C1524       C  0.61437803  0.71291129  0.22983150    -0.05800
C1525       C  0.65682424  0.70177740  0.23288266     0.00140
C1526       C  0.67400332  0.69885480  0.25845094    -0.08330
C1527       C  0.72088094  0.69138118  0.26262396     0.62050
H1528       H  0.65783417  0.69477051  0.29966077     0.12740
H1529       H  0.60158700  0.71628516  0.21023690     0.12750
C1530       C  0.54287552  0.73191498  0.24573765     0.62280
F1531       F  0.73128692  0.69027389  0.28892342    -0.22880
F1532       F  0.74368388  0.72384824  0.25108464    -0.20210
F1533       F  0.73258356  0.65336055  0.25150413    -0.19890
F1534       F  0.52023011  0.73953951  0.26833279    -0.19940
F1535       F  0.52268559  0.70131536  0.23096038    -0.20270
F1536       F  0.54413013  0.76912814  0.23150835    -0.22940
C1537       C  0.86558405  0.57545365  0.27663976    -0.05780
C1538       C  0.90347972  0.59492979  0.26798447     0.00150
C1539       C  0.91498818  0.59117520  0.24135085    -0.08420
C1540       C  0.89016383  0.56496214  0.22524528    -0.05800
C1541       C  0.84867582  0.55294796  0.23240444     0.00140
C1542       C  0.83675080  0.55662557  0.25891118    -0.08330
C1543       C  0.79288184  0.54364879  0.26791762     0.62050
H1544       H  0.85701593  0.57811651  0.29706540     0.12740
H1545       H  0.89858612  0.56304135  0.20469477     0.12750
C1546       C  0.94370748  0.62260636  0.22711501     0.62280
F1547       F  0.78851971  0.54707112  0.29477473    -0.22880
F1548       F  0.78529514  0.50205579  0.26094785    -0.20210
F1549       F  0.76280276  0.56921621  0.25634658    -0.19890
F1550       F  0.96673481  0.60212412  0.20795463    -0.19940
F1551       F  0.97171327  0.64425689  0.24278902    -0.20270
F1552       F  0.91847826  0.65270331  0.21543399    -0.22940
C1553       C  0.79924958  0.99964694  0.97381789    -0.05780
C1554       C  0.75639374  0.98692376  0.97464010     0.00150
C1555       C  0.72907051  0.00572164  0.99290008    -0.08420
C1556       C  0.74529371  0.03695879  0.00970250    -0.05800
C1557       C  0.78913447  0.04649290  0.01121981     0.00140
C1558       C  0.81628599  0.02860927  0.99232776    -0.08330
C1559       C  0.86281343  0.03997893  0.99213889     0.62050
H1560       H  0.81951695  0.98570883  0.95912448     0.12740
H1561       H  0.72417773  0.05119299  0.02383033     0.12750
C1562       C  0.68345773  0.99077846  0.99552765     0.62280
F1563       F  0.88387254  0.02101341  0.97155661    -0.22880
F1564       F  0.88149570  0.02708832  0.01526128    -0.20210
F1565       F  0.86719570  0.08335791  0.98968376    -0.19890
F1566       F  0.68282099  0.94791156  0.00109569    -0.19940
F1567       F  0.66187454  0.99778595  0.97240151    -0.20270
F1568       F  0.66232620  0.01150587  0.01542401    -0.22940
C1569       C  0.68050742  0.26309636  0.03006002    -0.05780
C1570       C  0.67593382  0.21889109  0.02754575     0.00150
C1571       C  0.67010783  0.20182550  0.00216424    -0.08420
C1572       C  0.67543512  0.22881641  0.98018835    -0.05800
C1573       C  0.68650157  0.27182001  0.98308773     0.00140
C1574       C  0.68597306  0.28983652  0.00835329    -0.08330
C1575       C  0.69525513  0.33633059  0.01323923     0.62050
H1576       H  0.68368874  0.27651894  0.04947698     0.12740
H1577       H  0.67452294  0.21569957  0.96064089     0.12750
C1578       C  0.66075746  0.15525942  0.99824800     0.62280
F1579       F  0.67280402  0.35051477  0.03472778    -0.22880
F1580       F  0.68375790  0.36117619  0.99212684    -0.20210
F1581       F  0.73803201  0.34160570  0.01807500    -0.19890
F1582       F  0.62566299  0.14391154  0.01287245    -0.19940
F1583       F  0.69513589  0.13145224  0.00605847    -0.20270
F1584       F  0.65223927  0.14600015  0.97231117    -0.22940
C1585       C  0.79424311  0.89482624  0.12892776    -0.05780
C1586       C  0.75468176  0.90978414  0.12078253     0.00150
C1587       C  0.72201154  0.88085725  0.11421914    -0.08420
C1588       C  0.73060123  0.83727282  0.11553453    -0.05800
C1589       C  0.77011959  0.82241472  0.12382021     0.00140
C1590       C  0.80261192  0.85129945  0.13056264    -0.08330
C1591       C  0.84588252  0.83605674  0.13927120     0.62050
H1592       H  0.81846444  0.91764811  0.13421209     0.12740
H1593       H  0.70621508  0.81435839  0.11071959     0.12750
C1594       C  0.67788108  0.89589161  0.10712070     0.62280
F1595       F  0.87354761  0.86937855  0.14374267    -0.22880
F1596       F  0.86315237  0.81054916  0.12012052    -0.20210
F1597       F  0.84214157  0.81317255  0.16220569    -0.19890
F1598       F  0.67925627  0.91894266  0.08417240    -0.19940
F1599       F  0.66216685  0.92106971  0.12695635    -0.20270
F1600       F  0.65006264  0.86241276  0.10353855    -0.22940
C1601       C  0.70740712  0.38490788  0.14062882    -0.05780
C1602       C  0.73799548  0.41252250  0.13018057     0.00150
C1603       C  0.77732928  0.39574242  0.12179525    -0.08420
C1604       C  0.78450330  0.35173779  0.12405168    -0.05800
C1605       C  0.75392493  0.32409869  0.13449793     0.00140
C1606       C  0.71440416  0.34079785  0.14252106    -0.08330
C1607       C  0.67912303  0.31184514  0.15189259     0.62050
H1608       H  0.67749480  0.39815387  0.14683448     0.12740
H1609       H  0.81425514  0.33843722  0.11759995     0.12750
C1610       C  0.81200954  0.42429979  0.11107182     0.62280
F1611       F  0.64210406  0.33382651  0.15664493    -0.22880
F1612       F  0.69108863  0.29205608  0.17481620    -0.20210
F1613       F  0.67065888  0.28157487  0.13304647    -0.19890
F1614       F  0.82038845  0.45657976  0.12860568    -0.19940
F1615       F  0.79942692  0.44147724  0.08747552    -0.20270
F1616       F  0.84928727  0.40245733  0.10689134    -0.22940
C1617       C  0.67207696  0.09940688  0.28689114    -0.05780
C1618       C  0.63008561  0.08558450  0.28236521     0.00150
C1619       C  0.61039894  0.09683084  0.25859805    -0.08420
C1620       C  0.62968028  0.12710268  0.24263136    -0.05800
C1621       C  0.67280802  0.13760580  0.24520590     0.00140
C1622       C  0.69477486  0.12309940  0.26771173    -0.08330
C1623       C  0.74130072  0.13302778  0.27141256     0.62050
H1624       H  0.68646345  0.09248213  0.30563548     0.12740
H1625       H  0.61288936  0.13793659  0.22542075     0.12750
C1626       C  0.56876002  0.07647840  0.25017487     0.62280
F1627       F  0.75602833  0.11885689  0.29535656    -0.22880
F1628       F  0.74755557  0.17631345  0.27014884    -0.20210
F1629       F  0.76467777  0.11372202  0.25197559    -0.19890
F1630       F  0.53589149  0.08877170  0.26622229    -0.19940
F1631       F  0.57270701  0.03296903  0.25144124    -0.20270
F1632       F  0.55818663  0.08711260  0.22472033    -0.22940
C1633       C  0.83805582  0.03441692  0.25556593    -0.05780
C1634       C  0.86254799  0.03913831  0.23296612     0.00150
C1635       C  0.90710811  0.03721252  0.23505367    -0.08420
C1636       C  0.92571116  0.03186181  0.25994933    -0.05800
C1637       C  0.90161284  0.02950231  0.28320676     0.00140
C1638       C  0.85640458  0.03030968  0.28072119    -0.08330
C1639       C  0.82677667  0.02847874  0.30397662     0.62050
H1640       H  0.80401999  0.03626471  0.25339333     0.12740
H1641       H  0.95986808  0.03075505  0.26132433     0.12750
C1642       C  0.93492186  0.04055528  0.21091366     0.62280
F1643       F  0.78459238  0.02782930  0.29656471    -0.22880
F1644       F  0.83279173  0.06405980  0.31926607    -0.20210
F1645       F  0.83407643  0.99196090  0.31814489    -0.19890
F1646       F  0.93182605  0.08059629  0.20021903    -0.19940
F1647       F  0.92203918  0.01101786  0.19258304    -0.20270
F1648       F  0.97709531  0.03317147  0.21663904    -0.22940
C1649       C  0.17985633  0.55205732  0.99529964    -0.05780
C1650       C  0.16030390  0.53314048  0.01696224     0.00150
C1651       C  0.14242821  0.49217674  0.01425032    -0.08420
C1652       C  0.14797381  0.46992790  0.99054958    -0.05800
C1653       C  0.17160417  0.48720262  0.96989930     0.00140
C1654       C  0.18654789  0.52945619  0.97188401    -0.08330
C1655       C  0.21209200  0.54970312  0.95009870     0.62050
H1656       H  0.19408674  0.58302487  0.99790170     0.12740
H1657       H  0.13666356  0.43766496  0.98873851     0.12750
C1658       C  0.11940304  0.47149165  0.03693821     0.62280
F1659       F  0.22046076  0.59176759  0.95536284    -0.22880
F1660       F  0.18981897  0.54761922  0.92685323    -0.20210
F1661       F  0.25031722  0.52905651  0.94725293    -0.19890
F1662       F  0.08779486  0.49811216  0.04567754    -0.19940
F1663       F  0.14738037  0.46380581  0.05719289    -0.20270
F1664       F  0.10093448  0.43342964  0.02976389    -0.22940
C1665       C  0.22029948  0.69211254  0.00297625    -0.05780
C1666       C  0.26449363  0.68578857  0.00567263     0.00150
C1667       C  0.29183067  0.70110996  0.98625210    -0.08420
C1668       C  0.27461621  0.72600451  0.96615915    -0.05800
C1669       C  0.23120854  0.73704450  0.96523522     0.00140
C1670       C  0.20341330  0.71908230  0.98366199    -0.08330
C1671       C  0.15729357  0.73209621  0.98453874     0.62050
H1672       H  0.19951103  0.67961211  0.01797298     0.12740
H1673       H  0.29594931  0.74060328  0.95230474     0.12750
C1674       C  0.33917974  0.69358968  0.98792477     0.62280
F1675       F  0.13528316  0.71119570  0.00410295    -0.22880
F1676       F  0.13816578  0.72300450  0.96086554    -0.20210
F1677       F  0.15458958  0.77512426  0.98920518    -0.19890
F1678       F  0.34683989  0.65056371  0.98744727    -0.19940
F1679       F  0.35509678  0.71040205  0.01089853    -0.20270
F1680       F  0.36079823  0.71208682  0.96733421    -0.22940
C1681       C  0.52118071  0.58168459  0.10096557    -0.05780
C1682       C  0.54108697  0.60034813  0.12275657     0.00150
C1683       C  0.51547876  0.61777687  0.14279752    -0.08420
C1684       C  0.47102474  0.61467152  0.14054403    -0.05800
C1685       C  0.45113700  0.59506119  0.11905930     0.00140
C1686       C  0.47672936  0.57855652  0.09872020    -0.08330
C1687       C  0.45762238  0.55639752  0.07512881     0.62050
H1688       H  0.54087576  0.56849359  0.08576038     0.12740
H1689       H  0.45127181  0.62751413  0.15586014     0.12750
C1690       C  0.53458810  0.64019353  0.16632016     0.62280
F1691       F  0.48834172  0.53976672  0.05885700    -0.22880
F1692       F  0.43413392  0.58486917  0.06065676    -0.20210
F1693       F  0.43190524  0.52339583  0.08327816    -0.19890
F1694       F  0.56296112  0.67089940  0.15810089    -0.19940
F1695       F  0.55521180  0.61128825  0.18206287    -0.20270
F1696       F  0.50399244  0.65984913  0.18133553    -0.22940
C1697       C  0.02108175  0.66890911  0.12375328    -0.05780
C1698       C  0.04296058  0.63250712  0.13126010     0.00150
C1699       C  0.02066698  0.59555472  0.13858280    -0.08420
C1700       C  0.97628178  0.59696913  0.13956314    -0.05800
C1701       C  0.95440084  0.63335419  0.13190190     0.00140
C1702       C  0.97674203  0.66984016  0.12355588    -0.08330
C1703       C  0.95392250  0.70943096  0.11444951     0.62050
H1704       H  0.03914256  0.69639523  0.11762926     0.12740
H1705       H  0.95826715  0.56928158  0.14539380     0.12750
C1706       C  0.04377886  0.55453344  0.14383935     0.62280
F1707       F  0.98184875  0.74224686  0.10924779    -0.22880
F1708       F  0.92611278  0.72285012  0.13356655    -0.20210
F1709       F  0.93168248  0.70090419  0.09174588    -0.19890
F1710       F  0.07275117  0.56042893  0.16367778    -0.19940
F1711       F  0.06498862  0.54210726  0.12149004    -0.20270
F1712       F  0.01637896  0.52230720  0.15111112    -0.22940
C1713       C  0.14208638  0.50026016  0.27105823    -0.05780
C1714       C  0.10028660  0.51561256  0.27069913     0.00150
C1715       C  0.08183272  0.52590886  0.24632462    -0.08420
C1716       C  0.10792863  0.52962086  0.22443631    -0.05800
C1717       C  0.15138565  0.52140305  0.22548701     0.00140
C1718       C  0.16780268  0.50169410  0.24826501    -0.08330
C1719       C  0.21168087  0.48275172  0.24856800     0.62050
H1720       H  0.15552332  0.49044312  0.28957160     0.12740
H1721       H  0.09448402  0.54212516  0.20665564     0.12750
C1722       C  0.03579359  0.53775239  0.24278381     0.62280
F1723       F  0.21998221  0.46230456  0.27195901    -0.22880
F1724       F  0.24187879  0.51381535  0.24506756    -0.20210
F1725       F  0.21492573  0.45347818  0.22858852    -0.19890
F1726       F  0.03348591  0.58091603  0.23890909    -0.19940
F1727       F  0.01103060  0.52635085  0.26396453    -0.20270
F1728       F  0.01946045  0.51751447  0.22098582    -0.22940
C1729       C  0.37494041  0.67316289  0.24217318    -0.05780
C1730       C  0.33443940  0.65706390  0.23793392     0.00150
C1731       C  0.31702673  0.62760073  0.25582281    -0.08420
C1732       C  0.34299890  0.61161786  0.27585045    -0.05800
C1733       C  0.38530278  0.62483690  0.27868567     0.00140
C1734       C  0.40046652  0.65835282  0.26272008    -0.08330
C1735       C  0.44328974  0.67854669  0.26676976     0.62050
H1736       H  0.38758780  0.69537579  0.22800682     0.12740
H1737       H  0.33080550  0.58735957  0.28879495     0.12750
C1738       C  0.27173312  0.61204393  0.25307440     0.62280
F1739       F  0.44731923  0.71480497  0.25179328    -0.22880
F1740       F  0.47452557  0.65041040  0.25954788    -0.20210
F1741       F  0.44840508  0.68997597  0.29269746    -0.19890
F1742       F  0.26653587  0.59102869  0.22965344    -0.19940
F1743       F  0.24447442  0.64611338  0.25386611    -0.20270
F1744       F  0.26066282  0.58455027  0.27297270    -0.22940
C1745       C  0.20996588  0.01286798  0.99742298    -0.05780
C1746       C  0.21698631  0.99763067  0.02269747     0.00150
C1747       C  0.23726462  0.95800063  0.02584314    -0.08420
C1748       C  0.25577955  0.93844060  0.00381967    -0.05800
C1749       C  0.25338247  0.95675619  0.97881823     0.00140
C1750       C  0.22582426  0.99197805  0.97525123    -0.08330
C1751       C  0.21234526  0.00888782  0.94878558     0.62050
H1752       H  0.19394625  0.04292088  0.99507458     0.12740
H1753       H  0.27457481  0.91014622  0.00631776     0.12750
C1754       C  0.24143064  0.93791550  0.05261072     0.62280
F1755       F  0.17152819  0.02459440  0.95003743    -0.22880
F1756       F  0.21215716  0.97736330  0.93007713    -0.20210
F1757       F  0.23901292  0.04154864  0.94138974    -0.19890
F1758       F  0.20186615  0.93459735  0.06401377    -0.19940
F1759       F  0.26724304  0.96251259  0.06821808    -0.20270
F1760       F  0.25866841  0.89778095  0.05124940    -0.22940
C1761       C  0.28120314  0.24840056  0.02529884    -0.05780
C1762       C  0.30892899  0.21375890  0.02296947     0.00150
C1763       C  0.33309204  0.20964001  0.99997282    -0.08420
C1764       C  0.33075253  0.24177803  0.98081923    -0.05800
C1765       C  0.30422080  0.27753888  0.98343027     0.00140
C1766       C  0.27750512  0.27980192  0.00569647    -0.08330
C1767       C  0.24430882  0.31399133  0.00868873     0.62050
H1768       H  0.26258279  0.25098391  0.04299853     0.12740
H1769       H  0.35024104  0.23915535  0.96350646     0.12750
C1770       C  0.36200054  0.17197961  0.99607907     0.62280
F1771       F  0.21729879  0.30578996  0.02941793    -0.22880
F1772       F  0.21998201  0.31651110  0.98623570    -0.20210
F1773       F  0.26370848  0.35241202  0.01331577    -0.19890
F1774       F  0.33822632  0.13513168  0.99638053    -0.19940
F1775       F  0.39172432  0.17050839  0.01594016    -0.20270
F1776       F  0.38330634  0.17395518  0.97246561    -0.22940
C1777       C  0.23385725  0.89136419  0.12353281    -0.05780
C1778       C  0.27587077  0.90491380  0.12818113     0.00150
C1779       C  0.30694759  0.87367483  0.13336201    -0.08420
C1780       C  0.29470967  0.83031104  0.13375250    -0.05800
C1781       C  0.25259784  0.81738659  0.12923712     0.00140
C1782       C  0.22164189  0.84847502  0.12416568    -0.08330
C1783       C  0.17544815  0.83641439  0.12013213     0.62050
H1784       H  0.21001781  0.91498128  0.11950673     0.12740
H1785       H  0.31808409  0.80603398  0.13736354     0.12750
C1786       C  0.35248358  0.88594093  0.13887381     0.62280
F1787       F  0.14970038  0.87159011  0.11800854    -0.22880
F1788       F  0.16137412  0.81264845  0.14115596    -0.20210
F1789       F  0.17107552  0.81300164  0.09748005    -0.19890
F1790       F  0.35410698  0.91493696  0.15909153    -0.19940
F1791       F  0.37024036  0.90357166  0.11670603    -0.20270
F1792       F  0.37661613  0.85130871  0.14596016    -0.22940
C1793       C  0.25008895  0.33988935  0.09685858    -0.05780
C1794       C  0.22823536  0.32172453  0.11797722     0.00150
C1795       C  0.21138494  0.34823092  0.13781370    -0.08420
C1796       C  0.21891055  0.39192479  0.13603938    -0.05800
C1797       C  0.24370286  0.40949429  0.11604059     0.00140
C1798       C  0.25913459  0.38329366  0.09576252    -0.08330
C1799       C  0.28731759  0.40009201  0.07400292     0.62050
H1800       H  0.26240058  0.31909806  0.08186500     0.12740
H1801       H  0.20654323  0.41281789  0.15091756     0.12750
C1802       C  0.18737253  0.33136297  0.16140013     0.62280
F1803       F  0.30324586  0.36787781  0.05863490    -0.22880
F1804       F  0.32152876  0.42162188  0.08452950    -0.20210
F1805       F  0.26435346  0.42689591  0.05805677    -0.19890
F1806       F  0.21146819  0.30168542  0.17450595    -0.19940
F1807       F  0.14954647  0.31358489  0.15331139    -0.20270
F1808       F  0.17776833  0.36302335  0.17910711    -0.22940
C1809       C  0.49362927  0.12005100  0.14802146    -0.05780
C1810       C  0.46893704  0.08640336  0.13808326     0.00150
C1811       C  0.48978077  0.04918083  0.12927075    -0.08420
C1812       C  0.53433694  0.04903927  0.12842120    -0.05800
C1813       C  0.55818649  0.08390253  0.13671897     0.00140
C1814       C  0.53795861  0.11955265  0.14731781    -0.08330
C1815       C  0.56320601  0.15755690  0.15685266     0.62050
H1816       H  0.47835787  0.14779592  0.15569214     0.12740
H1817       H  0.55105979  0.02188458  0.12077597     0.12750
C1818       C  0.46591572  0.00967320  0.12076763     0.62280
F1819       F  0.53734828  0.18944420  0.16614789    -0.22880
F1820       F  0.58712675  0.17384823  0.13652991    -0.20210
F1821       F  0.58985752  0.14541928  0.17690388    -0.19890
F1822       F  0.44594373  0.01679628  0.09711185    -0.19940
F1823       F  0.43632664  0.99861465  0.13953692    -0.20270
F1824       F  0.49276383  0.97555257  0.11757435    -0.22940
C1825       C  0.03593110  0.17852090  0.12409099    -0.05780
C1826       C  0.05238818  0.13751398  0.12063236     0.00150
C1827       C  0.02315894  0.10257724  0.11976971    -0.08420
C1828       C  0.97943327  0.11081633  0.12131812    -0.05800
C1829       C  0.96374299  0.15154869  0.12455890     0.00140
C1830       C  0.99205992  0.18605479  0.12628165    -0.08330
C1831       C  0.97562671  0.23050683  0.13051902     0.62050
H1832       H  0.05785453  0.20489288  0.12517680     0.12740
H1833       H  0.95662370  0.08518616  0.12014898     0.12750
C1834       C  0.03616141  0.05643608  0.11761181     0.62280
F1835       F  0.00810204  0.26001806  0.13141515    -0.22880
F1836       F  0.95378394  0.23227931  0.15392039    -0.20210
F1837       F  0.94860825  0.24134891  0.11031630    -0.19890
F1838       F  0.06777040  0.04719909  0.13539610    -0.19940
F1839       F  0.04924035  0.04809369  0.09236908    -0.20270
F1840       F  0.00283424  0.02913609  0.12296168    -0.22940
C1841       C  0.16798628  0.08192749  0.25336051    -0.05780
C1842       C  0.15004711  0.07124179  0.22910593     0.00150
C1843       C  0.10782187  0.08354228  0.22366246    -0.08420
C1844       C  0.08512422  0.10576469  0.24285760    -0.05800
C1845       C  0.10336001  0.11714446  0.26691416     0.00140
C1846       C  0.14582248  0.10540010  0.27219485    -0.08330
C1847       C  0.16777911  0.11725106  0.29755697     0.62050
H1848       H  0.20098676  0.07424583  0.25663766     0.12740
H1849       H  0.05213436  0.11343976  0.23958076     0.12750
C1850       C  0.08714333  0.07450527  0.19745201     0.62280
F1851       F  0.20965579  0.10446034  0.29803478    -0.22880
F1852       F  0.14739939  0.09811754  0.31822829    -0.20210
F1853       F  0.16701800  0.16066465  0.30076067    -0.19890
F1854       F  0.08791750  0.03150153  0.19262372    -0.19940
F1855       F  0.10857437  0.09566242  0.17784838    -0.20270
F1856       F  0.04537052  0.08756117  0.19674205    -0.22940
C1857       C  0.39806183  0.18741687  0.22827576    -0.05780
C1858       C  0.35510068  0.17729797  0.23321997     0.00150
C1859       C  0.34339923  0.16790548  0.25947337    -0.08420
C1860       C  0.37484671  0.16927491  0.27918156    -0.05800
C1861       C  0.41757829  0.17960545  0.27413067     0.00140
C1862       C  0.42940543  0.18874342  0.24798625    -0.08330
C1863       C  0.47451617  0.20016251  0.24043275     0.62050
H1864       H  0.40749385  0.19426473  0.20839643     0.12740
H1865       H  0.36599216  0.16222260  0.29915240     0.12750
C1866       C  0.29841494  0.15661793  0.26727126     0.62280
F1867       F  0.47725031  0.21457001  0.21490416    -0.22880
F1868       F  0.49973165  0.16473304  0.24244416    -0.20210
F1869       F  0.48986529  0.23189809  0.25648836    -0.19890
F1870       F  0.28532252  0.12085033  0.25393310    -0.19940
F1871       F  0.27199541  0.19026927  0.26186089    -0.20270
F1872       F  0.29486642  0.14795242  0.29372722    -0.22940
loop_ 
_geom_bond_atom_site_label_1 
_geom_bond_atom_site_label_2 
_geom_bond_distance 
_geom_bond_site_symmetry_2 
_ccdc_geom_bond_type 
C1           N19   1.329       .  A
C1           C38   1.484       .  S
C1         C1842   1.468       .  S
N2           N19   1.306       .  A
N2           N24   1.316       .  A
N2          Co39   2.009       .  S
C3           N28   1.328       .  A
C3           C41   1.443       .  S
C3           H48   1.082       .  S
H4           C45   1.080       .  S
C5           N29   1.333       .  A
C5            C9   1.463       .  S
C5           H34   1.080       .  S
Co6          N24   2.125       .  S
Co6          N14   2.060       .  S
Co6          N46   2.061       .  S
Co6          N22   2.131       .  S
Co6         Cl50   2.452       .  S
N7           C45   1.359   1_545  A
N7           N14   1.324       .  A
N7           Co8   2.161       .  S
Co8          N11   2.086       .  S
Co8          N28   2.038       .  S
Co8          N15   2.147       .  S
Co8         Cl50   2.438       .  S
C9           N47   1.354       .  A
C9         C1810   1.492       .  S
N10          N17   1.312       .  A
N10          N40   1.320       .  A
N10         Co43   2.050       .  S
N11          N29   1.315       .  A
N11          N47   1.324       .  A
N12          C41   1.363       .  A
N12          N22   1.334       .  A
H13          C38   1.081       .  S
N14          N35   1.318   1_545  A
N15          N33   1.319       .  A
N15          N20   1.336       .  A
C16          N20   1.365       .  A
C16          C44   1.442       .  S
C16        C1762   1.493       .  S
N17          C32   1.351       .  A
N17         Co39   2.124       .  S
C18          N46   1.332       .  A
C18          C21   1.462       .  S
C18          H52   1.073       .  S
C21          N42   1.364       .  A
C21        C1826   1.506       .  S
N22          N28   1.318       .  A
N23          C49   1.338       .  A
N23          N25   1.313       .  A
N23         Co39   2.051       .  S
N24          C38   1.354       .  A
N25          N53   1.319       .  A
N25         Co43   2.077       .  S
H26          C49   1.077       .  S
H27          C44   1.081       .  S
N29         Co43   2.063       .  S
N30          N42   1.330       .  A
N30          N46   1.320       .  A
N30         Co39   2.133       .  S
C31          N35   1.344       .  A
C31          C45   1.491       .  S
C31        C1778   1.508       .  S
C32          C51   1.488       .  S
C32          H36   1.076       .  S
N33          C44   1.332       .  A
N33         Co43   2.046       .  S
C37          N53   1.350       .  A
C37          C49   1.463       .  S
C37        C1794   1.476       .  S
Co39        Cl50   2.432       .  S
N40          C51   1.349       .  A
C41        C1746   1.480   1_545  S
Co43        Cl50   2.453       .  S
C51        C1858   1.515       .  S
C54          N72   1.360       .  A
C54          C91   1.456       .  S
C54        C1717   1.494       .  S
N55          N72   1.336       .  A
N55          N77   1.321       .  A
N55         Co92   2.121       .  S
C56          N81   1.343       .  A
C56          C94   1.457       .  S
C56         H101   1.081       .  S
H57          C98   1.081       .  S
C58          N82   1.330       .  A
C58          C62   1.447       .  S
C58          H87   1.081       .  S
Co59         N77   2.074       .  S
Co59         N67   2.092       .  S
Co59         N99   2.087       .  S
Co59         N75   2.107       .  S
Co59       Cl103   2.463       .  S
N60          C98   1.335       .  A
N60          N67   1.317       .  A
N60         Co61   2.049       .  S
Co61         N64   2.141       .  S
Co61         N81   2.099       .  S
Co61         N68   2.033       .  S
Co61       Cl103   2.422       .  S
C62         N100   1.365       .  A
C62        C1650   1.483       .  S
N63          N70   1.317       .  A
N63          N93   1.322       .  A
N63         Co96   2.078       .  S
N64          N82   1.318       .  A
N64         N100   1.334       .  A
N65          C94   1.357       .  A
N65          N75   1.332       .  A
H66          C91   1.082       .  S
N67          N88   1.325       .  A
N68          N86   1.318       .  A
N68          N73   1.310       .  A
C69          N73   1.332       .  A
C69          C97   1.478       .  S
C69        C1666   1.482       .  S
N70          C85   1.336       .  A
N70         Co92   2.057       .  S
C71          N99   1.346       .  A
C71          C74   1.468       .  S
C71         H105   1.081       .  S
C74          N95   1.341       .  A
C74        C1730   1.465       .  S
N75          N81   1.321       .  A
N76         C102   1.339       .  A
N76          N78   1.323       .  A
N76         Co92   2.094       .  S
N77          C91   1.331       .  A
N78         N106   1.329       .  A
N78         Co96   2.106       .  S
H79         C102   1.081       .  S
H80          C97   1.081       .  S
N82         Co96   2.047       .  S
N83          N95   1.315       .  A
N83          N99   1.318       .  A
N83         Co92   2.056       .  S
C84          N88   1.350       .  A
C84          C98   1.448       .  S
C84        C1698   1.462       .  S
C85         C104   1.458       .  S
C85          H89   1.082       .  S
N86          C97   1.353       .  A
N86         Co96   2.109       .  S
C90         N106   1.357       .  A
C90         C102   1.459       .  S
C90        C1685   1.497       .  S
Co92       Cl103   2.429       .  S
N93         C104   1.346       .  A
C94        C1781   1.494       .  S
Co96       Cl103   2.463       .  S
C104       C1797   1.474       .  S
C107        N125   1.351       .  A
C107        C144   1.456       .  S
C107       C1829   1.477       .  S
N108        N125   1.327       .  A
N108        N130   1.325       .  A
N108       Co145   2.089       .  S
C109        N134   1.307       .  A
C109        C147   1.428       .  S
C109        H154   1.082       .  S
H110        C151   1.081       .  S
C111        N135   1.342   1_565  A
C111        C115   1.459       .  S
C111        H140   1.081       .  S
Co112       N130   2.107       .  S
Co112       N120   2.075       .  S
Co112       N152   2.109       .  S
Co112       N128   2.143       .  S
Co112      Cl156   2.474       .  S
N113        C151   1.350       .  A
N113        N120   1.321       .  A
N113       Co114   2.124       .  S
Co114       N117   2.049       .  S
Co114       N134   2.000       .  S
Co114       N121   2.099       .  S
Co114      Cl156   2.418       .  S
C115        N153   1.347       .  A
C115       C1586   1.470       .  S
N116        N123   1.315       .  A
N116        N146   1.307       .  A
N116       Co149   2.025       .  S
N117        N135   1.316       .  A
N117        N153   1.323   1_545  A
N118        C147   1.373       .  A
N118        N128   1.342       .  A
H119        C144   1.081       .  S
N120        N141   1.323       .  A
N121        N139   1.318       .  A
N121        N126   1.324       .  A
C122        N126   1.347       .  A
C122        C150   1.455       .  S
C122       C1813   1.465       .  S
N123        C138   1.365       .  A
N123       Co145   2.162       .  S
C124        N152   1.349       .  A
C124        C127   1.469       .  S
C124        H158   1.081       .  S
C127        N148   1.350       .  A
C127       C1605   1.496       .  S
N128        N134   1.314       .  A
N129        C155   1.324       .  A
N129        N131   1.316       .  A
N129       Co145   2.023       .  S
N130        C144   1.342       .  A
N131        N159   1.339       .  A
N131       Co149   2.157       .  S
H132        C155   1.082       .  S
H133        C150   1.081       .  S
N135       Co149   2.094       .  S
N136        N148   1.328       .  A
N136        N152   1.325       .  A
N136       Co145   2.116       .  S
C137        N141   1.347       .  A
C137        C151   1.474       .  S
C137       C1634   1.491       .  S
C138        C157   1.501       .  S
C138        H142   1.081       .  S
N139        C150   1.339       .  A
N139       Co149   2.054       .  S
C143        N159   1.370       .  A
C143        C155   1.443       .  S
C143       C1570   1.499       .  S
Co145      Cl156   2.458       .  S
N146        C157   1.330       .  A
C147       C1621   1.489       .  S
Co149      Cl156   2.436       .  S
C157       C1557   1.501       .  S
C160        N178   1.342       .  A
C160        C197   1.455       .  S
C160       C1701   1.461       .  S
N161        N178   1.320       .  A
N161        N183   1.315       .  A
N161       Co198   2.032       .  S
C162        N187   1.336       .  A
C162        C200   1.453       .  S
C162        H207   1.081       .  S
H163        C204   1.081       .  S
C164        N188   1.345       .  A
C164        C168   1.462       .  S
C164        H193   1.081       .  S
Co165       N183   2.097       .  S
Co165       N173   2.010       .  S
Co165       N205   2.055       .  S
Co165       N181   2.101       .  S
Co165      Cl209   2.436       .  S
N166        C204   1.363       .  A
N166        N173   1.318       .  A
N166       Co167   2.140       .  S
Co167       N170   2.096       .  S
Co167       N187   2.082       .  S
Co167       N174   2.123       .  S
Co167      Cl209   2.459       .  S
C168        N206   1.354       .  A
C168       C1602   1.495       .  S
N169        N176   1.318       .  A
N169        N199   1.315       .  A
N169       Co202   2.037       .  S
N170        N188   1.322       .  A
N170        N206   1.330       .  A
N171        C200   1.355       .  A
N171        N181   1.331       .  A
H172        C197   1.066       .  S
N173        N194   1.303       .  A
N174        N192   1.324       .  A
N174        N179   1.328       .  A
C175        N179   1.355       .  A
C175        C203   1.464       .  S
C175       C1682   1.497       .  S
N176        C191   1.352       .  A
N176       Co198   2.124       .  S
C177        N205   1.338       .  A
C177        C180   1.454       .  S
C177        H211   1.081       .  S
C180        N201   1.349       .  A
C180       C1589   1.469       .  S
N181        N187   1.322       .  A
N182        C208   1.313       .  A
N182        N184   1.314       .  A
N182       Co198   1.999       .  S
N183        C197   1.339       .  A
N184        N212   1.340       .  A
N184       Co202   2.159       .  S
H185        C208   1.082       .  S
H186        C203   1.081       .  S
N188       Co202   2.113       .  S
N189        N201   1.326       .  A
N189        N205   1.317       .  A
N189       Co198   2.099       .  S
C190        N194   1.328       .  A
C190        C204   1.491       .  S
C190       C1541   1.481       .  S
C191        C210   1.477       .  S
C191        H195   1.081       .  S
N192        C203   1.340       .  A
N192       Co202   2.083       .  S
C196        N212   1.374       .  A
C196        C208   1.427       .  S
C196       C1509   1.484       .  S
Co198      Cl209   2.433       .  S
N199        C210   1.338       .  A
C200       C1525   1.482       .  S
Co202      Cl209   2.457       .  S
C210       C1493   1.476       .  S
C213        N231   1.347       .  A
C213        C250   1.468       .  S
C213       C1653   1.487       .  S
N214        N231   1.324       .  A
N214        N236   1.320       .  A
N214       Co251   2.071       .  S
C215        N240   1.333       .  A
C215        C253   1.444       .  S
C215        H260   1.082       .  S
H216        C257   1.081       .  S
C217        N241   1.335       .  A
C217        C221   1.461       .  S
C217        H246   1.082       .  S
Co218       N236   2.115       .  S
Co218       N226   2.074       .  S
Co218       N258   2.111       .  S
Co218       N234   2.152       .  S
Co218      Cl262   2.474       .  S
N219        C257   1.348       .  A
N219        N226   1.323       .  A
N219       Co220   2.125       .  S
Co220       N223   2.051       .  S
Co220       N240   2.041       .  S
Co220       N227   2.119       .  S
Co220      Cl262   2.428       .  S
C221        N259   1.345       .  A
C221       C1474   1.465       .  S
N222        N229   1.320       .  A
N222        N252   1.318       .  A
N222       Co255   2.054       .  S
N223        N241   1.311       .  A
N223        N259   1.322       .  A
N224        C253   1.371       .  A
N224        N234   1.339       .  A
H225        C250   1.081       .  S
N226        N247   1.321       .  A
N227        N245   1.315       .  A
N227        N232   1.328       .  A
C228        N232   1.365       .  A
C228        C256   1.465       .  S
C228       C1410   1.514       .  S
N229        C244   1.355       .  A
N229       Co251   2.147       .  S
C230        N258   1.344       .  A
C230        C233   1.466       .  S
C230        H264   1.081       .  S
C233        N254   1.354       .  A
C233       C1458   1.489       .  S
N234        N240   1.316       .  A
N235        C261   1.347       .  A
N235        N237   1.317       .  A
N235       Co251   2.091       .  S
N236        C250   1.349       .  A
N237        N265   1.322       .  A
N237       Co255   2.072       .  S
H238        C261   1.081       .  S
H239        C256   1.070       .  S
N241       Co255   2.062       .  S
N242        N254   1.328       .  A
N242        N258   1.330       .  A
N242       Co251   2.130       .  S
C243        N247   1.347       .  A
C243        C257   1.470       .  S
C243       C1445   1.485       .  S
C244        C263   1.491       .  S
C244        H248   1.077       .  S
N245        C256   1.335       .  A
N245       Co255   2.066       .  S
C249        N265   1.345       .  A
C249        C261   1.463       .  S
C249       C1426   1.475       .  S
Co251      Cl262   2.446       .  S
N252        C263   1.342       .  A
C253       C1394   1.508       .  S
Co255      Cl262   2.459       .  S
C263       C1765   1.506       .  S
C266        N284   1.355       .  A
C266        C303   1.459       .  S
C266       C1749   1.500       .  S
N267        N284   1.331       .  A
N267        N289   1.316       .  A
N267       Co304   2.107       .  S
C268        N293   1.345       .  A
C268        C306   1.467       .  S
C268        H313   1.081       .  S
H269        C310   1.081       .  S
C270        N294   1.333       .  A
C270        C274   1.453       .  S
C270        H299   1.080       .  S
Co271       N289   2.076       .  S
Co271       N279   2.056       .  S
Co271       N311   2.048       .  S
Co271       N287   2.093       .  S
Co271      Cl315   2.458       .  S
N272        C310   1.345   1_565  A
N272        N279   1.313       .  A
N272       Co273   2.064       .  S
Co273       N276   2.125       .  S
Co273       N293   2.101       .  S
Co273       N280   2.024       .  S
Co273      Cl315   2.417       .  S
C274        N312   1.356       .  A
C274       C1378   1.479       .  S
N275        N282   1.310       .  A
N275        N305   1.334       .  A
N275       Co308   2.127       .  S
N276        N294   1.326       .  A
N276        N312   1.329       .  A
N277        C306   1.355       .  A
N277        N287   1.327       .  A
H278        C303   1.076       .  S
N279        N300   1.313   1_565  A
N280        N298   1.316       .  A
N280        N285   1.308       .  A
C281        N285   1.330       .  A
C281        C309   1.484       .  S
C281       C1330   1.466       .  S
N282        C297   1.322       .  A
N282       Co304   2.024       .  S
C283        N311   1.330       .  A
C283        C286   1.451       .  S
C283        H317   1.079       .  S
C286        N307   1.347       .  A
C286       C1365   1.457       .  S
N287        N293   1.317       .  A
N288        C314   1.350       .  A
N288        N290   1.324       .  A
N288       Co304   2.148       .  S
N289        C303   1.340       .  A
N290        N318   1.325       .  A
N290       Co308   2.077       .  S
H291        C314   1.081       .  S
H292        C309   1.081       .  S
N294       Co308   2.070       .  S
N295        N307   1.322       .  A
N295        N311   1.314       .  A
N295       Co304   2.061       .  S
C296        N300   1.339       .  A
C296        C310   1.465       .  S
C296       C1477   1.468       .  S
C297        C316   1.443       .  S
C297        H301   1.083       .  S
N298        C309   1.352       .  A
N298       Co308   2.121       .  S
C302        N318   1.351       .  A
C302        C314   1.480       .  S
C302       C1461   1.500       .  S
Co304      Cl315   2.403       .  S
N305        C316   1.368       .  A
C306       C1346   1.506       .  S
Co308      Cl315   2.480       .  S
C316       C1669   1.491       .  S
C319        N337   1.356       .  A
C319        C356   1.449       .  S
C319       C1490   1.471       .  S
N320        N337   1.329       .  A
N320        N342   1.321       .  A
N320       Co357   2.102       .  S
C321        N346   1.343       .  A
C321        C359   1.475       .  S
C321        H366   1.075       .  S
H322        C363   1.081       .  S
C323        N347   1.340       .  A
C323        C327   1.463       .  S
C323        H352   1.082       .  S
Co324       N342   2.070       .  S
Co324       N332   2.095       .  S
Co324       N364   2.089       .  S
Co324       N340   2.080       .  S
Co324      Cl368   2.445       .  S
N325        C363   1.351       .  A
N325        N332   1.318       .  A
N325       Co326   2.101       .  S
Co326       N329   2.095       .  S
Co326       N346   2.093       .  S
Co326       N333   2.087       .  S
Co326      Cl368   2.462       .  S
C327        N365   1.351       .  A
C327       C1429   1.491       .  S
N328        N335   1.322       .  A
N328        N358   1.329       .  A
N328       Co361   2.092       .  S
N329        N347   1.322       .  A
N329        N365   1.326       .  A
N330        C359   1.354       .  A
N330        N340   1.322       .  A
H331        C356   1.080       .  S
N332        N353   1.321       .  A
N333        N351   1.319       .  A
N333        N338   1.323       .  A
C334        N338   1.351       .  A
C334        C362   1.462       .  S
C334       C1266   1.476       .  S
N335        C350   1.343       .  A
N335       Co357   2.102       .  S
C336        N364   1.342       .  A
C336        C339   1.461       .  S
C336        H370   1.082       .  S
C339        N360   1.351       .  A
C339       C1442   1.478       .  S
N340        N346   1.316       .  A
N341        C367   1.342       .  A
N341        N343   1.320       .  A
N341       Co357   2.090       .  S
N342        C356   1.333       .  A
N343        N371   1.323       .  A
N343       Co361   2.086       .  S
H344        C367   1.081       .  S
H345        C362   1.081       .  S
N347       Co361   2.090       .  S
N348        N360   1.326       .  A
N348        N364   1.320       .  A
N348       Co357   2.093       .  S
C349        N353   1.350       .  A
C349        C363   1.476       .  S
C349       C1301   1.510       .  S
C350        C369   1.465       .  S
C350        H354   1.081       .  S
N351        C362   1.343       .  A
N351       Co361   2.087       .  S
C355        N371   1.350       .  A
C355        C367   1.465       .  S
C355       C1317   1.486       .  S
Co357      Cl368   2.461       .  S
N358        C369   1.351       .  A
C359       C1282   1.504       .  S
Co361      Cl368   2.454       .  S
C369       C1573   1.490       .  S
C372        N390   1.330       .  A
C372        C409   1.505       .  S
C372       C1506   1.521       .  S
N373        N390   1.305       .  A
N373        N395   1.309       .  A
N373       Co410   2.016       .  S
C374        N399   1.332       .  A
C374        C412   1.451       .  S
C374        H419   1.081       .  S
H375        C416   1.081       .  S
C376        N400   1.335   1_545  A
C376        C380   1.450       .  S
C376        H405   1.082       .  S
Co377       N395   2.147       .  S
Co377       N385   2.101       .  S
Co377       N417   2.038       .  S
Co377       N393   2.107       .  S
Co377      Cl421   2.469       .  S
N378        C416   1.340       .  A
N378        N385   1.329       .  A
N378       Co379   2.108       .  S
Co379       N382   2.088       .  S
Co379       N399   2.049       .  S
Co379       N386   2.124       .  S
Co379      Cl421   2.419       .  S
C380        N418   1.353   1_545  A
C380       C1314   1.469       .  S
N381        N388   1.319       .  A
N381        N411   1.323       .  A
N381       Co414   2.053       .  S
N382        N400   1.314       .  A
N382        N418   1.328       .  A
N383        C412   1.358       .  A
N383        N393   1.330       .  A
H384        C409   1.080       .  S
N385        N406   1.323       .  A
N386        N404   1.317       .  A
N386        N391   1.329       .  A
C387        N391   1.363       .  A
C387        C415   1.452       .  S
C387       C1234   1.494       .  S
N388        C403   1.352       .  A
N388       Co410   2.128       .  S
C389        N417   1.329       .  A
C389        C392   1.453       .  S
C389        H423   1.082       .  S
C392        N413   1.371       .  A
C392       C1298   1.500       .  S
N393        N399   1.317       .  A
N394        C420   1.337       .  A
N394        N396   1.313       .  A
N394       Co410   2.043       .  S
N395        C409   1.366       .  A
N396        N424   1.318       .  A
N396       Co414   2.074       .  S
H397        C420   1.081       .  S
H398        C415   1.073       .  S
N400       Co414   2.055       .  S
N401        N413   1.338       .  A
N401        N417   1.319       .  A
N401       Co410   2.177       .  S
C402        N406   1.352       .  A
C402        C416   1.461       .  S
C402       C1381   1.475       .  S
C403        C422   1.467       .  S
C403        H407   1.080       .  S
N404        C415   1.331       .  A
N404       Co414   2.051       .  S
C408        N424   1.349       .  A
C408        C420   1.453       .  S
C408       C1362   1.457       .  S
Co410      Cl421   2.405       .  S
N411        C422   1.341       .  A
C412       C1250   1.480       .  S
Co414      Cl421   2.466       .  S
C422       C1554   1.484       .  S
C425        N443   1.354       .  A
C425        C462   1.460       .  S
C425       C1397   1.510       .  S
N426        N443   1.333       .  A
N426        N448   1.322       .  A
N426       Co463   2.110   1_455  S
C427        N452   1.330       .  A
C427        C465   1.452       .  S
C427        H472   1.075       .  S
H428        C469   1.080       .  S
C429        N453   1.328       .  A
C429        C433   1.450       .  S
C429        H458   1.082   1_455  S
Co430       N448   2.109       .  S
Co430       N438   2.035       .  S
Co430       N470   2.049       .  S
Co430       N446   2.120       .  S
Co430      Cl474   2.427       .  S
N431        C469   1.341       .  A
N431        N438   1.312       .  A
N431       Co432   2.033       .  S
Co432       N435   2.096       .  S
Co432       N452   2.062       .  S
Co432       N439   2.019       .  S
Co432      Cl474   2.426       .  S
C433        N471   1.354       .  A
C433       C1170   1.460       .  S
N434        N441   1.315       .  A
N434        N464   1.330       .  A
N434       Co467   2.103       .  S
N435        N453   1.318       .  A
N435        N471   1.325       .  A
N436        C465   1.366       .  A
N436        N446   1.332       .  A
H437        C462   1.076       .  S
N438        N459   1.308       .  A
N439        N457   1.313   1_455  A
N439        N444   1.309       .  A
C440        N444   1.330   1_655  A
C440        C468   1.486       .  S
C440       C1141   1.471       .  S
N441        C456   1.332       .  A
N441       Co463   2.050       .  S
C442        N470   1.328       .  A
C442        C445   1.461   1_455  S
C442        H476   1.079       .  S
C445        N466   1.365       .  A
C445       C1186   1.512       .  S
N446        N452   1.317       .  A
N447        C473   1.347       .  A
N447        N449   1.326       .  A
N447       Co463   2.118       .  S
N448        C462   1.350       .  A
N449        N477   1.317       .  A
N449       Co467   2.074       .  S
H450        C473   1.077       .  S
H451        C468   1.082       .  S
N453       Co467   2.044   1_455  S
N454        N466   1.335       .  A
N454        N470   1.314   1_655  A
N454       Co463   2.118       .  S
C455        N459   1.335       .  A
C455        C469   1.458       .  S
C455       C1218   1.444       .  S
C456        C475   1.448       .  S
C456        H460   1.082       .  S
N457        C468   1.353       .  A
N457       Co467   2.117       .  S
C461        N477   1.345       .  A
C461        C473   1.479       .  S
C461       C1202   1.498       .  S
Co463      Cl474   2.452   1_655  S
N464        C475   1.358       .  A
C465       C1154   1.496       .  S
Co467      Cl474   2.445   1_655  S
C475       C1285   1.475       .  S
C478        N496   1.331       .  A
C478        C515   1.485       .  S
C478       C1333   1.467       .  S
N479        N496   1.307       .  A
N479        N501   1.315       .  A
N479       Co516   2.012       .  S
C480        N505   1.331       .  A
C480        C518   1.445       .  S
C480        H525   1.081   1_455  S
H481        C522   1.081       .  S
C482        N506   1.344       .  A
C482        C486   1.471       .  S
C482        H511   1.081       .  S
Co483       N501   2.125       .  S
Co483       N491   2.054       .  S
Co483       N523   2.085       .  S
Co483       N499   2.137       .  S
Co483      Cl527   2.490       .  S
N484        C522   1.353       .  A
N484        N491   1.319   1_655  A
N484       Co485   2.153       .  S
Co485       N488   2.044       .  S
Co485       N505   2.057   1_655  S
Co485       N492   2.121       .  S
Co485      Cl527   2.392   1_655  S
C486        N524   1.341       .  A
C486       C1106   1.467       .  S
N487        N494   1.315       .  A
N487        N517   1.320       .  A
N487       Co520   2.055       .  S
N488        N506   1.316       .  A
N488        N524   1.319       .  A
N489        C518   1.366       .  A
N489        N499   1.333       .  A
H490        C515   1.081       .  S
N491        N512   1.321       .  A
N492        N510   1.315       .  A
N492        N497   1.332       .  A
C493        N497   1.362       .  A
C493        C521   1.456       .  S
C493       C1093   1.497       .  S
N494        C509   1.348       .  A
N494       Co516   2.115   1_655  S
C495        N523   1.341       .  A
C495        C498   1.465       .  S
C495        H529   1.081       .  S
C498        N519   1.359       .  A
C498       C1125   1.504       .  S
N499        N505   1.316       .  A
N500        C526   1.334       .  A
N500        N502   1.315       .  A
N500       Co516   2.040       .  S
N501        C515   1.353       .  A
N502        N530   1.315       .  A
N502       Co520   2.080   1_455  S
H503        C526   1.081       .  S
H504        C521   1.077       .  S
N506       Co520   2.102       .  S
N507        N519   1.333       .  A
N507        N523   1.324       .  A
N507       Co516   2.140       .  S
C508        N512   1.347   1_645  A
C508        C522   1.469   1_545  S
C508       C1189   1.494       .  S
C509        C528   1.477       .  S
C509        H513   1.077   1_655  S
N510        C521   1.337       .  A
N510       Co520   2.060       .  S
C514        N530   1.348       .  A
C514        C526   1.459       .  S
C514       C1173   1.475       .  S
Co516      Cl527   2.407       .  S
N517        C528   1.349       .  A
C518       C1077   1.499       .  S
Co520      Cl527   2.463   1_655  S
C528       C1253   1.499       .  S
C531        N549   1.366       .  A
C531        C568   1.458       .  S
C531       C1413   1.508       .  S
N532        N549   1.331       .  A
N532        N554   1.314       .  A
N532       Co569   2.118       .  S
C533        N558   1.349       .  A
C533        C571   1.467       .  S
C533        H578   1.081       .  S
H534        C575   1.081       .  S
C535        N559   1.324       .  A
C535        C539   1.443       .  S
C535        H564   1.077       .  S
Co536       N554   2.059       .  S
Co536       N544   2.052       .  S
Co536       N576   2.027       .  S
Co536       N552   2.073       .  S
Co536      Cl580   2.414       .  S
N537        C575   1.335       .  A
N537        N544   1.312       .  A
N537       Co538   2.042       .  S
Co538       N541   2.115       .  S
Co538       N558   2.106       .  S
Co538       N545   2.019       .  S
Co538      Cl580   2.450       .  S
C539        N577   1.361       .  A
C539       C1061   1.477       .  S
N540        N547   1.316       .  A
N540        N570   1.329       .  A
N540       Co573   2.106       .  S
N541        N559   1.315       .  A
N541        N577   1.325       .  A
N542        C571   1.346       .  A
N542        N552   1.324       .  A
H543        C568   1.068       .  S
N544        N565   1.314       .  A
N545        N563   1.317       .  A
N545        N550   1.312       .  A
C546        N550   1.334       .  A
C546        C574   1.483       .  S
C546       C1026   1.479       .  S
N547        C562   1.333       .  A
N547       Co569   2.050       .  S
C548        N576   1.322       .  A
C548        C551   1.443       .  S
C548        H582   1.082       .  S
C551        N572   1.355       .  A
C551       C1042   1.463       .  S
N552        N558   1.317       .  A
N553        C579   1.350       .  A
N553        N555   1.324       .  A
N553       Co569   2.127       .  S
N554        C568   1.329       .  A
N555        N583   1.314       .  A
N555       Co573   2.054       .  S
H556        C579   1.080       .  S
H557        C574   1.081       .  S
N559       Co573   2.023       .  S
N560        N572   1.325       .  A
N560        N576   1.317       .  A
N560       Co569   2.091       .  S
C561        N565   1.342       .  A
C561        C575   1.455       .  S
C561       C1221   1.439       .  S
C562        C581   1.454       .  S
C562        H566   1.082       .  S
N563        C574   1.356       .  A
N563       Co573   2.136       .  S
C567        N583   1.341       .  A
C567        C579   1.477       .  S
C567       C1205   1.484       .  S
Co569      Cl580   2.465       .  S
N570        C581   1.355       .  A
C571       C1010   1.485       .  S
Co573      Cl580   2.416       .  S
C581       C1269   1.476       .  S
C584        N602   1.366       .  A
C584        C621   1.442       .  S
C584       C1237   1.493       .  S
N585        N602   1.332       .  A
N585        N607   1.315       .  A
N585       Co622   2.129       .  S
C586        N611   1.340       .  A
C586        C624   1.461       .  S
C586        H631   1.080       .  S
H587        C628   1.081       .  S
C588        N612   1.326       .  A
C588        C592   1.442   1_565  S
C588        H617   1.080   1_565  S
Co589       N607   2.032       .  S
Co589       N597   2.057       .  S
Co589       N629   2.024       .  S
Co589       N605   2.061       .  S
Co589      Cl633   2.439       .  S
N590        C628   1.347       .  A
N590        N597   1.315       .  A
N590       Co591   2.080       .  S
Co591       N594   2.111       .  S
Co591       N611   2.078       .  S
Co591       N598   2.027       .  S
Co591      Cl633   2.434       .  S
C592        N630   1.356   1_545  A
C592       C1058   1.466       .  S
N593        N600   1.318       .  A
N593        N623   1.334       .  A
N593       Co626   2.130       .  S
N594        N612   1.322       .  A
N594        N630   1.326       .  A
N595        C624   1.350       .  A
N595        N605   1.322       .  A
H596        C621   1.073       .  S
N597        N618   1.314       .  A
N598        N616   1.317       .  A
N598        N603   1.310       .  A
C599        N603   1.330       .  A
C599        C627   1.494       .  S
C599        C978   1.481       .  S
N600        C615   1.333       .  A
N600       Co622   2.052       .  S
C601        N629   1.324       .  A
C601        C604   1.448       .  S
C601        H635   1.081       .  S
C604        N625   1.354       .  A
C604       C1045   1.470       .  S
N605        N611   1.312       .  A
N606        C632   1.352       .  A
N606        N608   1.325       .  A
N606       Co622   2.135       .  S
N607        C621   1.327       .  A
N608        N636   1.324       .  A
N608       Co626   2.089       .  S
H609        C632   1.081       .  S
H610        C627   1.081       .  S
N612       Co626   2.033       .  S
N613        N625   1.323       .  A
N613        N629   1.316       .  A
N613       Co622   2.091       .  S
C614        N618   1.340       .  A
C614        C628   1.470       .  S
C614       C1109   1.466       .  S
C615        C634   1.451       .  S
C615        H619   1.082       .  S
N616        C627   1.356       .  A
N616       Co626   2.144       .  S
C620        N636   1.351       .  A
C620        C632   1.478       .  S
C620       C1122   1.502       .  S
Co622      Cl633   2.442       .  S
N623        C634   1.362       .  A
C624        C994   1.473       .  S
Co626      Cl633   2.456       .  S
C634       C1349   1.495       .  S
C637        N655   1.358       .  A
C637        C674   1.479       .  S
C637       C1637   1.520       .  S
N638        N655   1.326       .  A
N638        N660   1.314       .  A
N638       Co675   2.097   1_655  S
C639        N664   1.345       .  A
C639        C677   1.451       .  S
C639        H684   1.078   1_655  S
H640        C681   1.081       .  S
C641        N665   1.339       .  A
C641        C645   1.470   1_455  S
C641        H670   1.082       .  S
Co642       N660   2.094       .  S
Co642       N650   2.076       .  S
Co642       N682   2.076   1_645  S
Co642       N658   2.070       .  S
Co642      Cl686   2.433   1_655  S
N643        C681   1.345       .  A
N643        N650   1.315       .  A
N643       Co644   2.078       .  S
Co644       N647   2.092       .  S
Co644       N664   2.085       .  S
Co644       N651   2.059   1_655  S
Co644      Cl686   2.443   1_655  S
C645        N683   1.351       .  A
C645        C965   1.487       .  S
N646        N653   1.316       .  A
N646        N676   1.332       .  A
N646       Co679   2.122       .  S
N647        N665   1.323   1_655  A
N647        N683   1.325       .  A
N648        C677   1.343       .  A
N648        N658   1.322       .  A
H649        C674   1.072       .  S
N650        N671   1.319       .  A
N651        N669   1.314       .  A
N651        N656   1.317       .  A
C652        N656   1.343       .  A
C652        C680   1.474       .  S
C652       C1157   1.475       .  S
N653        C668   1.322       .  A
N653       Co675   2.023       .  S
C654        N682   1.344       .  A
C654        C657   1.495       .  S
C654        H688   1.087       .  S
C657        N678   1.359       .  A
C657        C946   1.491       .  S
N658        N664   1.320       .  A
N659        C685   1.352       .  A
N659        N661   1.319       .  A
N659       Co675   2.114       .  S
N660        C674   1.343       .  A
N661        N689   1.311       .  A
N661       Co679   2.056       .  S
H662        C685   1.080       .  S
H663        C680   1.082       .  S
N665       Co679   2.097       .  S
N666        N678   1.318       .  A
N666        N682   1.314       .  A
N666       Co675   2.059   1_565  S
C667        N671   1.347       .  A
C667        C681   1.466       .  S
C667        C917   1.491       .  S
C668        C687   1.437       .  S
C668        H672   1.082       .  S
N669        C680   1.352       .  A
N669       Co679   2.104       .  S
C673        N689   1.344       .  A
C673        C685   1.479       .  S
C673        C930   1.487       .  S
Co675      Cl686   2.439       .  S
N676        C687   1.365       .  A
C677       C1074   1.464   1_655  S
Co679      Cl686   2.446       .  S
C687       C1845   1.476       .  S
C690        N708   1.345       .  A
C690        C727   1.468       .  S
C690       C1714   1.485       .  S
N691        N708   1.320       .  A
N691        N713   1.315       .  A
N691       Co728   2.062       .  S
C692        N717   1.321       .  A
C692        C730   1.436   1_655  S
C692        H737   1.082       .  S
H693        C734   1.081       .  S
C694        N718   1.334       .  A
C694        C698   1.456       .  S
C694        H723   1.080       .  S
Co695       N713   2.103       .  S
Co695       N703   2.057       .  S
Co695       N735   2.096       .  S
Co695       N711   2.107       .  S
Co695      Cl739   2.456   1_455  S
N696        C734   1.357       .  A
N696        N703   1.325   1_655  A
N696       Co697   2.149       .  S
Co697       N700   2.075       .  S
Co697       N717   2.026       .  S
Co697       N704   2.118       .  S
Co697      Cl739   2.433       .  S
C698        N736   1.353       .  A
C698        C882   1.479       .  S
N699        N706   1.320       .  A
N699        N729   1.323       .  A
N699       Co732   2.061       .  S
N700        N718   1.314       .  A
N700        N736   1.327       .  A
N701        C730   1.361       .  A
N701        N711   1.332       .  A
H702        C727   1.079       .  S
N703        N724   1.313       .  A
N704        N722   1.319       .  A
N704        N709   1.330       .  A
C705        N709   1.357       .  A
C705        C733   1.459       .  S
C705       C1090   1.494       .  S
N706        C721   1.339       .  A
N706       Co728   2.099   1_655  S
C707        N735   1.342       .  A
C707        C710   1.465       .  S
C707        H741   1.082       .  S
C710        N731   1.348       .  A
C710        C898   1.474       .  S
N711        N717   1.316   1_455  A
N712        C738   1.339       .  A
N712        N714   1.313   1_455  A
N712       Co728   2.063       .  S
N713        C727   1.352       .  A
N714        N742   1.319       .  A
N714       Co732   2.061       .  S
H715        C738   1.078       .  S
H716        C733   1.079       .  S
N718       Co732   2.066       .  S
N719        N731   1.323       .  A
N719        N735   1.323       .  A
N719       Co728   2.092       .  S
C720        N724   1.336   1_655  A
C720        C734   1.486       .  S
C720        C962   1.498       .  S
C721        C740   1.463       .  S
C721        H725   1.073       .  S
N722        C733   1.342       .  A
N722       Co732   2.081       .  S
C726        N742   1.348   1_455  A
C726        C738   1.458       .  S
C726        C949   1.472       .  S
Co728      Cl739   2.430   1_455  S
N729        C740   1.345       .  A
C730       C1138   1.470       .  S
Co732      Cl739   2.455       .  S
C740       C1538   1.485       .  S
C743        N761   1.325       .  A
C743        C780   1.485       .  S
C743       C1618   1.472       .  S
N744        N761   1.303       .  A
N744        N766   1.317       .  A
N744       Co781   1.999       .  S
C745        N770   1.317       .  A
C745        C783   1.431       .  S
C745        H790   1.081       .  S
H746        C787   1.081   1_565  S
C747        N771   1.333       .  A
C747        C751   1.464       .  S
C747        H776   1.073       .  S
Co748       N766   2.136       .  S
Co748       N756   2.066       .  S
Co748       N788   2.068       .  S
Co748       N764   2.149       .  S
Co748      Cl792   2.470       .  S
N749        C787   1.349       .  A
N749        N756   1.326       .  A
N749       Co750   2.132       .  S
Co750       N753   2.055       .  S
Co750       N770   1.997       .  S
Co750       N757   2.102       .  S
Co750      Cl792   2.407       .  S
C751        N789   1.351       .  A
C751        C933   1.487       .  S
N752        N759   1.317       .  A
N752        N782   1.321       .  A
N752       Co785   2.062       .  S
N753        N771   1.310       .  A
N753        N789   1.324       .  A
N754        C783   1.375       .  A
N754        N764   1.340       .  A
H755        C780   1.081       .  S
N756        N777   1.318   1_545  A
N757        N775   1.315       .  A
N757        N762   1.329       .  A
C758        N762   1.355       .  A
C758        C786   1.463       .  S
C758       C1029   1.511       .  S
N759        C774   1.351       .  A
N759       Co781   2.129       .  S
C760        N788   1.329       .  A
C760        C763   1.461       .  S
C760        H794   1.082       .  S
C763        N784   1.359       .  A
C763        C914   1.494       .  S
N764        N770   1.309       .  A
N765        C791   1.342       .  A
N765        N767   1.312       .  A
N765       Co781   2.049       .  S
N766        C780   1.362       .  A
N767        N795   1.315       .  A
N767       Co785   2.064       .  S
H768        C791   1.080       .  S
H769        C786   1.069       .  S
N771       Co785   2.065       .  S
N772        N784   1.330       .  A
N772        N788   1.326       .  A
N772       Co781   2.138       .  S
C773        N777   1.343       .  A
C773        C787   1.473   1_565  S
C773        C850   1.487       .  S
C774        C793   1.483       .  S
C774        H778   1.076       .  S
N775        C786   1.340       .  A
N775       Co785   2.075       .  S
C779        N795   1.346       .  A
C779        C791   1.460       .  S
C779        C869   1.466       .  S
Co781      Cl792   2.408       .  S
N782        C793   1.348       .  A
C783        C981   1.495       .  S
Co785      Cl792   2.461       .  S
C793       C1861   1.506       .  S
C796        N814   1.354       .  A
C796        C833   1.453       .  S
C796       C1733   1.488       .  S
N797        N814   1.326       .  A
N797        N819   1.321       .  A
N797       Co834   2.099       .  S
C798        N823   1.347       .  A
C798        C836   1.467       .  S
C798        H843   1.080       .  S
H799        C840   1.078       .  S
C800        N824   1.332       .  A
C800        C804   1.457       .  S
C800        H829   1.082       .  S
Co801       N819   2.077       .  S
Co801       N809   2.064       .  S
Co801       N841   2.062       .  S
Co801       N817   2.081       .  S
Co801      Cl845   2.444       .  S
N802        C840   1.348       .  A
N802        N809   1.314       .  A
N802       Co803   2.091       .  S
Co803       N806   2.111       .  S
Co803       N823   2.114       .  S
Co803       N810   2.060       .  S
Co803      Cl845   2.456       .  S
C804        N842   1.356       .  A
C804        C853   1.481       .  S
N805        N812   1.318       .  A
N805        N835   1.331       .  A
N805       Co838   2.104       .  S
N806        N824   1.324       .  A
N806        N842   1.329       .  A
N807        C836   1.348       .  A
N807        N817   1.325       .  A
H808        C833   1.080       .  S
N809        N830   1.317       .  A
N810        N828   1.316       .  A
N810        N815   1.319       .  A
C811        N815   1.345       .  A
C811        C839   1.469       .  S
C811        C997   1.482       .  S
N812        C827   1.340       .  A
N812       Co834   2.075       .  S
C813        N841   1.335       .  A
C813        C816   1.456       .  S
C813        H847   1.080       .  S
C816        N837   1.344       .  A
C816        C866   1.461       .  S
N817        N823   1.321       .  A
N818        C844   1.343       .  A
N818        N820   1.319       .  A
N818       Co834   2.092       .  S
N819        C833   1.337       .  A
N820        N848   1.319       .  A
N820       Co838   2.080       .  S
H821        C844   1.078       .  S
H822        C839   1.081       .  S
N824       Co838   2.079       .  S
N825        N837   1.321       .  A
N825        N841   1.315       .  A
N825       Co834   2.061       .  S
C826        N830   1.346       .  A
C826        C840   1.477       .  S
C826        C901   1.494       .  S
C827        C846   1.458       .  S
C827        H831   1.082       .  S
N828        C839   1.343       .  A
N828       Co838   2.087       .  S
C832        N848   1.352       .  A
C832        C844   1.469       .  S
C832        C885   1.487       .  S
Co834      Cl845   2.452       .  S
N835        C846   1.355       .  A
C836       C1013   1.489       .  S
Co838      Cl845   2.441       .  S
C846       C1522   1.489       .  S
C849        H856   1.083       .  S
C849        C850   1.407       .  A
C849        C854   1.414       .  A
C850        C851   1.426       .  A
C851        C852   1.400       .  A
C851        C858   1.524       .  S
C852        H857   1.083       .  S
C852        C853   1.399       .  A
C853        C854   1.414       .  A
C854        C855   1.515       .  S
C855        F859   1.384       .  S
C855        F860   1.382       .  S
C855        F861   1.384       .  S
C858        F862   1.380       .  S
C858        F863   1.383       .  S
C858        F864   1.386       .  S
C865        H872   1.084       .  S
C865        C866   1.404       .  A
C865        C870   1.407       .  A
C866        C867   1.414       .  A
C867        C868   1.392       .  A
C867        C874   1.522       .  S
C868        H873   1.084       .  S
C868        C869   1.402       .  A
C869        C870   1.413       .  A
C870        C871   1.517       .  S
C871        F875   1.385       .  S
C871        F876   1.382       .  S
C871        F877   1.379       .  S
C874        F878   1.383       .  S
C874        F879   1.381       .  S
C874        F880   1.385       .  S
C881        H888   1.084       .  S
C881        C882   1.403       .  A
C881        C886   1.412       .  A
C882        C883   1.420       .  A
C883        C884   1.396       .  A
C883        C890   1.523       .  S
C884        H889   1.083       .  S
C884        C885   1.403       .  A
C885        C886   1.422       .  A
C886        C887   1.516       .  S
C887        F891   1.385       .  S
C887        F892   1.381       .  S
C887        F893   1.384       .  S
C890        F894   1.382       .  S
C890        F895   1.383       .  S
C890        F896   1.385       .  S
C897        H904   1.083       .  S
C897        C898   1.401       .  A
C897        C902   1.414       .  A
C898        C899   1.412       .  A
C899        C900   1.402       .  A
C899        C906   1.521       .  S
C900        H905   1.083       .  S
C900        C901   1.408       .  A
C901        C902   1.423       .  A
C902        C903   1.515       .  S
C903        F907   1.385       .  S
C903        F908   1.382       .  S
C903        F909   1.383       .  S
C906        F910   1.382       .  S
C906        F911   1.382       .  S
C906        F912   1.382       .  S
C913        H920   1.079       .  S
C913        C914   1.405       .  A
C913        C918   1.399       .  A
C914        C915   1.415       .  A
C915        C916   1.415       .  A
C915        C922   1.516       .  S
C916        H921   1.082       .  S
C916        C917   1.411       .  A
C917        C918   1.423       .  A
C918        C919   1.526       .  S
C919        F923   1.385       .  S
C919        F924   1.384       .  S
C919        F925   1.381       .  S
C922        F926   1.383       .  S
C922        F927   1.383       .  S
C922        F928   1.385       .  S
C929        H936   1.083       .  S
C929        C930   1.404       .  A
C929        C934   1.393       .  A
C930        C931   1.413       .  A
C931        C932   1.415       .  A
C931        C938   1.515       .  S
C932        H937   1.083       .  S
C932        C933   1.414       .  A
C933        C934   1.421       .  A
C934        C935   1.525       .  S
C935        F939   1.386       .  S
C935        F940   1.381       .  S
C935        F941   1.383       .  S
C938        F942   1.381   1_545  S
C938        F943   1.383       .  S
C938        F944   1.385   1_545  S
C945        H952   1.083       .  S
C945        C946   1.400       .  A
C945        C950   1.407       .  A
C946        C947   1.418   1_455  A
C947        C948   1.398       .  A
C947        C954   1.522       .  S
C948        H953   1.083       .  S
C948        C949   1.401   1_655  A
C949        C950   1.419       .  A
C950        C951   1.519       .  S
C951        F955   1.385       .  S
C951        F956   1.381       .  S
C951        F957   1.383       .  S
C954        F958   1.383       .  S
C954        F959   1.382       .  S
C954        F960   1.385       .  S
C961        H968   1.083       .  S
C961        C962   1.407       .  A
C961        C966   1.416       .  A
C962        C963   1.435   1_655  A
C963        C964   1.401       .  A
C963        C970   1.527       .  S
C964        H969   1.081       .  S
C964        C965   1.395   1_455  A
C965        C966   1.417       .  A
C966        C967   1.516       .  S
C967        F971   1.384       .  S
C967        F972   1.382       .  S
C967        F973   1.384       .  S
C970        F974   1.379       .  S
C970        F975   1.381       .  S
C970        F976   1.385       .  S
C977        H984   1.083       .  S
C977        C978   1.399       .  A
C977        C982   1.406   1_565  A
C978        C979   1.425       .  A
C979        C980   1.413       .  A
C979        C986   1.518       .  S
C980        H985   1.079       .  S
C980        C981   1.402   1_565  A
C981        C982   1.429       .  A
C982        C983   1.520       .  S
C983        F987   1.383       .  S
C983        F988   1.384       .  S
C983        F989   1.382       .  S
C986        F990   1.384       .  S
C986        F991   1.383       .  S
C986        F992   1.383       .  S
C993       H1000   1.084       .  S
C993        C994   1.400       .  A
C993        C998   1.402       .  A
C994        C995   1.414       .  A
C995        C996   1.407       .  A
C995       C1002   1.518       .  S
C996       H1001   1.081       .  S
C996        C997   1.407       .  A
C997        C998   1.421       .  A
C998        C999   1.520       .  S
C999       F1003   1.385       .  S
C999       F1004   1.383       .  S
C999       F1005   1.382       .  S
C1002      F1006   1.383       .  S
C1002      F1007   1.380       .  S
C1002      F1008   1.385       .  S
C1009      H1016   1.083       .  S
C1009      C1010   1.402       .  A
C1009      C1014   1.412       .  A
C1010      C1011   1.417       .  A
C1011      C1012   1.411       .  A
C1011      C1018   1.517       .  S
C1012      H1017   1.083       .  S
C1012      C1013   1.403       .  A
C1013      C1014   1.420       .  A
C1014      C1015   1.518       .  S
C1015      F1019   1.385       .  S
C1015      F1020   1.382       .  S
C1015      F1021   1.384       .  S
C1018      F1022   1.383       .  S
C1018      F1023   1.381       .  S
C1018      F1024   1.384       .  S
C1025      H1032   1.084       .  S
C1025      C1026   1.392       .  A
C1025      C1030   1.410       .  A
C1026      C1027   1.416       .  A
C1027      C1028   1.411       .  A
C1027      C1034   1.508       .  S
C1028      H1033   1.083       .  S
C1028      C1029   1.407       .  A
C1029      C1030   1.434       .  A
C1030      C1031   1.512       .  S
C1031      F1035   1.384       .  S
C1031      F1036   1.381       .  S
C1031      F1037   1.380       .  S
C1034      F1038   1.376       .  S
C1034      F1039   1.382       .  S
C1034      F1040   1.383       .  S
C1041      H1048   1.082       .  S
C1041      C1042   1.408       .  A
C1041      C1046   1.397       .  A
C1042      C1043   1.404       .  A
C1043      C1044   1.398       .  A
C1043      C1050   1.519       .  S
C1044      H1049   1.079       .  S
C1044      C1045   1.412       .  A
C1045      C1046   1.412       .  A
C1046      C1047   1.522       .  S
C1047      F1051   1.385       .  S
C1047      F1052   1.384       .  S
C1047      F1053   1.382       .  S
C1050      F1054   1.384       .  S
C1050      F1055   1.382       .  S
C1050      F1056   1.385       .  S
C1057      H1064   1.085       .  S
C1057      C1058   1.390       .  A
C1057      C1062   1.398       .  A
C1058      C1059   1.421       .  A
C1059      C1060   1.398       .  A
C1059      C1066   1.518       .  S
C1060      H1065   1.085       .  S
C1060      C1061   1.397       .  A
C1061      C1062   1.435       .  A
C1062      C1063   1.525       .  S
C1063      F1067   1.386       .  S
C1063      F1068   1.383       .  S
C1063      F1069   1.379       .  S
C1066      F1070   1.383       .  S
C1066      F1071   1.381       .  S
C1066      F1072   1.385       .  S
C1073      H1080   1.087       .  S
C1073      C1074   1.378   1_655  A
C1073      C1078   1.391   1_545  A
C1074      C1075   1.415       .  A
C1075      C1076   1.416   1_545  A
C1075      C1082   1.514       .  S
C1076      H1081   1.083       .  S
C1076      C1077   1.406       .  A
C1077      C1078   1.441   1_455  A
C1078      C1079   1.514       .  S
C1079      F1083   1.385   1_565  S
C1079      F1084   1.356       .  S
C1079      F1085   1.384       .  S
C1082      F1086   1.381       .  S
C1082      F1087   1.383       .  S
C1082      F1088   1.385       .  S
C1089      H1096   1.084       .  S
C1089      C1090   1.400       .  A
C1089      C1094   1.412       .  A
C1090      C1091   1.423       .  A
C1091      C1092   1.414       .  A
C1091      C1098   1.520   1_655  S
C1092      H1097   1.083       .  S
C1092      C1093   1.404       .  A
C1093      C1094   1.426       .  A
C1094      C1095   1.520       .  S
C1095      F1099   1.385       .  S
C1095      F1100   1.383       .  S
C1095      F1101   1.381       .  S
C1098      F1102   1.380   1_455  S
C1098      F1103   1.383       .  S
C1098      F1104   1.385       .  S
C1105      H1112   1.085       .  S
C1105      C1106   1.396       .  A
C1105      C1110   1.397       .  A
C1106      C1107   1.417       .  A
C1107      C1108   1.409       .  A
C1107      C1114   1.516       .  S
C1108      H1113   1.083       .  S
C1108      C1109   1.400       .  A
C1109      C1110   1.420       .  A
C1110      C1111   1.519       .  S
C1111      F1115   1.384       .  S
C1111      F1116   1.382       .  S
C1111      F1117   1.383       .  S
C1114      F1118   1.382       .  S
C1114      F1119   1.383       .  S
C1114      F1120   1.385       .  S
C1121      H1128   1.084       .  S
C1121      C1122   1.404       .  A
C1121      C1126   1.408       .  A
C1122      C1123   1.419       .  A
C1123      C1124   1.423       .  A
C1123      C1130   1.515       .  S
C1124      H1129   1.083       .  S
C1124      C1125   1.410       .  A
C1125      C1126   1.424       .  A
C1126      C1127   1.520       .  S
C1127      F1131   1.383       .  S
C1127      F1132   1.379       .  S
C1127      F1133   1.382       .  S
C1130      F1134   1.382       .  S
C1130      F1135   1.383       .  S
C1130      F1136   1.384       .  S
C1137      H1144   1.084       .  S
C1137      C1138   1.392       .  A
C1137      C1142   1.401       .  A
C1138      C1139   1.418       .  A
C1139      C1140   1.408   1_455  A
C1139      C1146   1.510       .  S
C1140      H1145   1.084       .  S
C1140      C1141   1.402       .  A
C1141      C1142   1.420   1_655  A
C1142      C1143   1.507       .  S
C1143      F1147   1.384       .  S
C1143      F1148   1.377       .  S
C1143      F1149   1.382   1_455  S
C1146      F1150   1.382       .  S
C1146      F1151   1.376       .  S
C1146      F1152   1.385       .  S
C1153      H1160   1.084       .  S
C1153      C1154   1.407       .  A
C1153      C1158   1.409       .  A
C1154      C1155   1.432       .  A
C1155      C1156   1.406       .  A
C1155      C1162   1.525       .  S
C1156      H1161   1.084       .  S
C1156      C1157   1.396       .  A
C1157      C1158   1.415       .  A
C1158      C1159   1.514       .  S
C1159      F1163   1.384       .  S
C1159      F1164   1.383       .  S
C1159      F1165   1.383       .  S
C1162      F1166   1.381       .  S
C1162      F1167   1.383       .  S
C1162      F1168   1.386       .  S
C1169      H1176   1.079       .  S
C1169      C1170   1.400       .  A
C1169      C1174   1.396       .  A
C1170      C1171   1.403       .  A
C1171      C1172   1.403       .  A
C1171      C1178   1.517       .  S
C1172      H1177   1.080       .  S
C1172      C1173   1.412       .  A
C1173      C1174   1.419       .  A
C1174      C1175   1.526   1_455  S
C1175      F1179   1.378       .  S
C1175      F1180   1.384   1_655  S
C1175      F1181   1.382       .  S
C1178      F1182   1.383       .  S
C1178      F1183   1.384       .  S
C1178      F1184   1.384       .  S
C1185      H1192   1.074       .  S
C1185      C1186   1.409   1_455  A
C1185      C1190   1.400       .  A
C1186      C1187   1.424       .  A
C1187      C1188   1.423       .  A
C1187      C1194   1.516       .  S
C1188      H1193   1.083       .  S
C1188      C1189   1.408       .  A
C1189      C1190   1.418   1_655  A
C1190      C1191   1.525       .  S
C1191      F1195   1.385       .  S
C1191      F1196   1.382       .  S
C1191      F1197   1.383       .  S
C1194      F1198   1.384       .  S
C1194      F1199   1.382       .  S
C1194      F1200   1.384       .  S
C1201      H1208   1.082       .  S
C1201      C1202   1.418       .  A
C1201      C1206   1.408       .  A
C1202      C1203   1.418       .  A
C1203      C1204   1.408       .  A
C1203      C1210   1.518       .  S
C1204      H1209   1.083       .  S
C1204      C1205   1.409       .  A
C1205      C1206   1.407       .  A
C1206      C1207   1.518       .  S
C1207      F1211   1.384       .  S
C1207      F1212   1.382       .  S
C1207      F1213   1.383       .  S
C1210      F1214   1.381       .  S
C1210      F1215   1.383       .  S
C1210      F1216   1.385       .  S
C1217      H1224   1.084       .  S
C1217      C1218   1.400       .  A
C1217      C1222   1.385       .  A
C1218      C1219   1.414       .  A
C1219      C1220   1.399       .  A
C1219      C1226   1.521       .  S
C1220      H1225   1.084       .  S
C1220      C1221   1.403       .  A
C1221      C1222   1.405       .  A
C1222      C1223   1.518       .  S
C1223      F1227   1.383       .  S
C1223      F1228   1.382       .  S
C1223      F1229   1.383       .  S
C1226      F1230   1.381       .  S
C1226      F1231   1.384       .  S
C1226      F1232   1.386       .  S
C1233      H1240   1.084       .  S
C1233      C1234   1.395       .  A
C1233      C1238   1.404       .  A
C1234      C1235   1.432       .  A
C1235      C1236   1.408       .  A
C1235      C1242   1.515       .  S
C1236      H1241   1.083       .  S
C1236      C1237   1.395       .  A
C1237      C1238   1.432       .  A
C1238      C1239   1.520       .  S
C1239      F1243   1.386       .  S
C1239      F1244   1.381       .  S
C1239      F1245   1.382       .  S
C1242      F1246   1.381       .  S
C1242      F1247   1.379       .  S
C1242      F1248   1.385       .  S
C1249      H1256   1.083       .  S
C1249      C1250   1.403       .  A
C1249      C1254   1.413       .  A
C1250      C1251   1.413       .  A
C1251      C1252   1.404       .  A
C1251      C1258   1.522       .  S
C1252      H1257   1.082       .  S
C1252      C1253   1.411       .  A
C1253      C1254   1.424       .  A
C1254      C1255   1.516       .  S
C1255      F1259   1.385       .  S
C1255      F1260   1.380   1_655  S
C1255      F1261   1.383       .  S
C1258      F1262   1.381       .  S
C1258      F1263   1.383       .  S
C1258      F1264   1.385       .  S
C1265      H1272   1.083       .  S
C1265      C1266   1.402       .  A
C1265      C1270   1.406       .  A
C1266      C1267   1.414       .  A
C1267      C1268   1.409       .  A
C1267      C1274   1.516       .  S
C1268      H1273   1.083       .  S
C1268      C1269   1.404       .  A
C1269      C1270   1.414       .  A
C1270      C1271   1.517       .  S
C1271      F1275   1.384       .  S
C1271      F1276   1.383       .  S
C1271      F1277   1.380       .  S
C1274      F1278   1.384       .  S
C1274      F1279   1.381       .  S
C1274      F1280   1.385       .  S
C1281      H1288   1.082       .  S
C1281      C1282   1.412       .  A
C1281      C1286   1.404       .  A
C1282      C1283   1.429       .  A
C1283      C1284   1.412       .  A
C1283      C1290   1.516       .  S
C1284      H1289   1.084       .  S
C1284      C1285   1.399       .  A
C1285      C1286   1.410       .  A
C1286      C1287   1.521       .  S
C1287      F1291   1.385       .  S
C1287      F1292   1.383       .  S
C1287      F1293   1.381       .  S
C1290      F1294   1.383       .  S
C1290      F1295   1.380       .  S
C1290      F1296   1.385       .  S
C1297      H1304   1.079       .  S
C1297      C1298   1.402       .  A
C1297      C1302   1.402       .  A
C1298      C1299   1.414       .  A
C1299      C1300   1.423       .  A
C1299      C1306   1.514       .  S
C1300      H1305   1.081       .  S
C1300      C1301   1.416       .  A
C1301      C1302   1.427       .  A
C1302      C1303   1.524       .  S
C1303      F1307   1.385       .  S
C1303      F1308   1.383       .  S
C1303      F1309   1.383       .  S
C1306      F1310   1.383       .  S
C1306      F1311   1.383       .  S
C1306      F1312   1.384       .  S
C1313      H1320   1.084       .  S
C1313      C1314   1.399       .  A
C1313      C1318   1.406       .  A
C1314      C1315   1.410       .  A
C1315      C1316   1.407       .  A
C1315      C1322   1.516       .  S
C1316      H1321   1.082       .  S
C1316      C1317   1.408       .  A
C1317      C1318   1.422       .  A
C1318      C1319   1.519       .  S
C1319      F1323   1.385       .  S
C1319      F1324   1.384       .  S
C1319      F1325   1.382       .  S
C1322      F1326   1.383       .  S
C1322      F1327   1.382       .  S
C1322      F1328   1.384       .  S
C1329      H1336   1.081       .  S
C1329      C1330   1.405       .  A
C1329      C1334   1.406       .  A
C1330      C1331   1.418       .  A
C1331      C1332   1.405       .  A
C1331      C1338   1.517       .  S
C1332      H1337   1.080       .  S
C1332      C1333   1.401       .  A
C1333      C1334   1.415       .  A
C1334      C1335   1.521       .  S
C1335      F1339   1.383       .  S
C1335      F1340   1.382       .  S
C1335      F1341   1.383       .  S
C1338      F1342   1.384       .  S
C1338      F1343   1.383       .  S
C1338      F1344   1.383       .  S
C1345      H1352   1.082       .  S
C1345      C1346   1.412       .  A
C1345      C1350   1.416       .  A
C1346      C1347   1.425       .  A
C1347      C1348   1.409       .  A
C1347      C1354   1.519       .  S
C1348      H1353   1.083       .  S
C1348      C1349   1.404       .  A
C1349      C1350   1.416       .  A
C1350      C1351   1.516       .  S
C1351      F1355   1.384       .  S
C1351      F1356   1.383       .  S
C1351      F1357   1.383       .  S
C1354      F1358   1.383       .  S
C1354      F1359   1.382       .  S
C1354      F1360   1.385       .  S
C1361      H1368   1.084       .  S
C1361      C1362   1.398       .  A
C1361      C1366   1.393       .  A
C1362      C1363   1.413       .  A
C1363      C1364   1.404       .  A
C1363      C1370   1.518       .  S
C1364      H1369   1.083       .  S
C1364      C1365   1.401       .  A
C1365      C1366   1.416       .  A
C1366      C1367   1.522       .  S
C1367      F1371   1.385       .  S
C1367      F1372   1.384       .  S
C1367      F1373   1.381       .  S
C1370      F1374   1.381       .  S
C1370      F1375   1.380       .  S
C1370      F1376   1.385       .  S
C1377      H1384   1.083       .  S
C1377      C1378   1.404       .  A
C1377      C1382   1.411   1_455  A
C1378      C1379   1.422       .  A
C1379      C1380   1.401   1_455  A
C1379      C1386   1.521       .  S
C1380      H1385   1.084       .  S
C1380      C1381   1.398       .  A
C1381      C1382   1.415       .  A
C1382      C1383   1.516       .  S
C1383      F1387   1.384   1_655  S
C1383      F1388   1.384       .  S
C1383      F1389   1.381       .  S
C1386      F1390   1.382       .  S
C1386      F1391   1.381       .  S
C1386      F1392   1.385       .  S
C1393      H1400   1.084       .  S
C1393      C1394   1.405       .  A
C1393      C1398   1.421       .  A
C1394      C1395   1.424       .  A
C1395      C1396   1.414       .  A
C1395      C1402   1.504       .  S
C1396      H1401   1.084       .  S
C1396      C1397   1.397       .  A
C1397      C1398   1.428       .  A
C1398      C1399   1.515       .  S
C1399      F1403   1.385       .  S
C1399      F1404   1.384       .  S
C1399      F1405   1.376       .  S
C1402      F1406   1.380       .  S
C1402      F1407   1.379       .  S
C1402      F1408   1.383       .  S
C1409      H1416   1.082       .  S
C1409      C1410   1.405       .  A
C1409      C1414   1.408       .  A
C1410      C1411   1.433       .  A
C1411      C1412   1.414       .  A
C1411      C1418   1.518       .  S
C1412      H1417   1.081       .  S
C1412      C1413   1.404       .  A
C1413      C1414   1.428       .  A
C1414      C1415   1.520       .  S
C1415      F1419   1.386       .  S
C1415      F1420   1.379       .  S
C1415      F1421   1.383       .  S
C1418      F1422   1.383       .  S
C1418      F1423   1.382       .  S
C1418      F1424   1.384       .  S
C1425      H1432   1.083       .  S
C1425      C1426   1.399       .  A
C1425      C1430   1.411       .  A
C1426      C1427   1.413       .  A
C1427      C1428   1.407       .  A
C1427      C1434   1.518       .  S
C1428      H1433   1.083       .  S
C1428      C1429   1.406       .  A
C1429      C1430   1.424       .  A
C1430      C1431   1.519       .  S
C1431      F1435   1.385       .  S
C1431      F1436   1.383       .  S
C1431      F1437   1.383       .  S
C1434      F1438   1.383       .  S
C1434      F1439   1.383       .  S
C1434      F1440   1.385       .  S
C1441      H1448   1.084       .  S
C1441      C1442   1.401       .  A
C1441      C1446   1.408   1_655  A
C1442      C1443   1.413       .  A
C1443      C1444   1.411   1_655  A
C1443      C1450   1.516       .  S
C1444      H1449   1.081       .  S
C1444      C1445   1.404       .  A
C1445      C1446   1.419       .  A
C1446      C1447   1.519       .  S
C1447      F1451   1.385       .  S
C1447      F1452   1.381       .  S
C1447      F1453   1.384       .  S
C1450      F1454   1.383       .  S
C1450      F1455   1.383       .  S
C1450      F1456   1.384       .  S
C1457      H1464   1.083       .  S
C1457      C1458   1.397       .  A
C1457      C1462   1.408       .  A
C1458      C1459   1.417       .  A
C1459      C1460   1.419       .  A
C1459      C1466   1.514       .  S
C1460      H1465   1.083       .  S
C1460      C1461   1.406       .  A
C1461      C1462   1.418       .  A
C1462      C1463   1.503       .  S
C1463      F1467   1.380       .  S
C1463      F1468   1.382       .  S
C1463      F1469   1.378       .  S
C1466      F1470   1.382       .  S
C1466      F1471   1.384       .  S
C1466      F1472   1.384       .  S
C1473      H1480   1.083       .  S
C1473      C1474   1.395       .  A
C1473      C1478   1.393       .  A
C1474      C1475   1.414       .  A
C1475      C1476   1.408       .  A
C1475      C1482   1.516       .  S
C1476      H1481   1.083       .  S
C1476      C1477   1.402       .  A
C1477      C1478   1.423       .  A
C1478      C1479   1.525       .  S
C1479      F1483   1.385       .  S
C1479      F1484   1.384       .  S
C1479      F1485   1.383       .  S
C1482      F1486   1.382       .  S
C1482      F1487   1.383       .  S
C1482      F1488   1.384       .  S
C1489      H1496   1.085       .  S
C1489      C1490   1.396       .  A
C1489      C1494   1.398   1_556  A
C1490      C1491   1.414       .  A
C1491      C1492   1.412   1_556  A
C1491      C1498   1.514       .  S
C1492      H1497   1.083       .  S
C1492      C1493   1.403       .  A
C1493      C1494   1.423       .  A
C1494      C1495   1.519       .  S
C1495      F1499   1.385   1_554  S
C1495      F1500   1.379       .  S
C1495      F1501   1.383       .  S
C1498      F1502   1.383       .  S
C1498      F1503   1.383       .  S
C1498      F1504   1.384   1_556  S
C1505      H1512   1.083       .  S
C1505      C1506   1.417       .  A
C1505      C1510   1.401   1_556  A
C1506      C1507   1.422       .  A
C1507      C1508   1.424       .  A
C1507      C1514   1.502       .  S
C1508      H1513   1.076       .  S
C1508      C1509   1.407   1_556  A
C1509      C1510   1.413       .  A
C1510      C1511   1.523       .  S
C1511      F1515   1.385       .  S
C1511      F1516   1.382       .  S
C1511      F1517   1.383       .  S
C1514      F1518   1.382       .  S
C1514      F1519   1.373       .  S
C1514      F1520   1.385       .  S
C1521      H1528   1.083       .  S
C1521      C1522   1.407       .  A
C1521      C1526   1.418       .  A
C1522      C1523   1.415       .  A
C1523      C1524   1.401       .  A
C1523      C1530   1.506       .  S
C1524      H1529   1.085       .  S
C1524      C1525   1.396       .  A
C1525      C1526   1.418       .  A
C1526      C1527   1.515       .  S
C1527      F1531   1.385       .  S
C1527      F1532   1.383       .  S
C1527      F1533   1.382       .  S
C1530      F1534   1.381       .  S
C1530      F1535   1.381       .  S
C1530      F1536   1.383       .  S
C1537      H1544   1.083       .  S
C1537      C1538   1.415       .  A
C1537      C1542   1.414       .  A
C1538      C1539   1.415       .  A
C1539      C1540   1.405       .  A
C1539      C1546   1.527       .  S
C1540      H1545   1.086       .  S
C1540      C1541   1.411       .  A
C1541      C1542   1.412       .  A
C1542      C1543   1.515       .  S
C1543      F1547   1.385       .  S
C1543      F1548   1.382       .  S
C1543      F1549   1.382       .  S
C1546      F1550   1.384       .  S
C1546      F1551   1.374       .  S
C1546      F1552   1.379       .  S
C1553      H1560   1.083       .  S
C1553      C1554   1.411       .  A
C1553      C1558   1.421   1_565  A
C1554      C1555   1.406   1_565  A
C1555      C1556   1.404   1_556  A
C1555      C1562   1.520   1_545  S
C1556      H1561   1.083       .  S
C1556      C1557   1.418       .  A
C1557      C1558   1.412   1_554  A
C1558      C1559   1.511       .  S
C1559      F1563   1.384       .  S
C1559      F1564   1.383   1_556  S
C1559      F1565   1.383       .  S
C1562      F1566   1.384   1_556  S
C1562      F1567   1.383       .  S
C1562      F1568   1.384   1_566  S
C1569      H1576   1.085       .  S
C1569      C1570   1.410       .  A
C1569      C1574   1.405       .  A
C1570      C1571   1.418       .  A
C1571      C1572   1.420   1_554  A
C1571      C1578   1.514   1_554  S
C1572      H1577   1.083       .  S
C1572      C1573   1.410       .  A
C1573      C1574   1.413   1_556  A
C1574      C1575   1.518       .  S
C1575      F1579   1.384       .  S
C1575      F1580   1.384   1_554  S
C1575      F1581   1.383       .  S
C1578      F1582   1.384   1_556  S
C1578      F1583   1.382   1_556  S
C1578      F1584   1.384       .  S
C1585      H1592   1.083       .  S
C1585      C1586   1.401       .  A
C1585      C1590   1.405       .  A
C1586      C1587   1.416       .  A
C1587      C1588   1.407       .  A
C1587      C1594   1.518       .  S
C1588      H1593   1.083       .  S
C1588      C1589   1.401       .  A
C1589      C1590   1.413       .  A
C1590      C1591   1.517       .  S
C1591      F1595   1.385       .  S
C1591      F1596   1.383       .  S
C1591      F1597   1.382       .  S
C1594      F1598   1.381       .  S
C1594      F1599   1.384       .  S
C1594      F1600   1.385       .  S
C1601      H1608   1.083       .  S
C1601      C1602   1.405       .  A
C1601      C1606   1.416       .  A
C1602      C1603   1.420       .  A
C1603      C1604   1.415       .  A
C1603      C1610   1.519       .  S
C1604      H1609   1.083       .  S
C1604      C1605   1.405       .  A
C1605      C1606   1.419       .  A
C1606      C1607   1.517       .  S
C1607      F1611   1.385       .  S
C1607      F1612   1.381       .  S
C1607      F1613   1.384       .  S
C1610      F1614   1.384       .  S
C1610      F1615   1.382       .  S
C1610      F1616   1.384       .  S
C1617      H1624   1.083       .  S
C1617      C1618   1.414       .  A
C1617      C1622   1.426       .  A
C1618      C1619   1.411       .  A
C1619      C1620   1.396       .  A
C1619      C1626   1.524       .  S
C1620      H1625   1.083       .  S
C1620      C1621   1.407       .  A
C1621      C1622   1.420       .  A
C1622      C1623   1.513       .  S
C1623      F1627   1.384       .  S
C1623      F1628   1.383       .  S
C1623      F1629   1.383       .  S
C1626      F1630   1.381       .  S
C1626      F1631   1.383       .  S
C1626      F1632   1.385       .  S
C1633      H1640   1.082       .  S
C1633      C1634   1.399       .  A
C1633      C1638   1.416       .  A
C1634      C1635   1.413       .  A
C1635      C1636   1.412       .  A
C1635      C1642   1.519       .  S
C1636      H1641   1.082       .  S
C1636      C1637   1.414       .  A
C1637      C1638   1.434       .  A
C1638      C1639   1.515       .  S
C1639      F1643   1.385       .  S
C1639      F1644   1.383       .  S
C1639      F1645   1.382   1_545  S
C1642      F1646   1.382       .  S
C1642      F1647   1.383       .  S
C1642      F1648   1.384       .  S
C1649      H1656   1.084       .  S
C1649      C1650   1.401   1_556  A
C1649      C1654   1.411       .  A
C1650      C1651   1.417       .  A
C1651      C1652   1.413   1_554  A
C1651      C1658   1.516       .  S
C1652      H1657   1.083       .  S
C1652      C1653   1.403       .  A
C1653      C1654   1.418       .  A
C1654      C1655   1.516       .  S
C1655      F1659   1.381       .  S
C1655      F1660   1.382       .  S
C1655      F1661   1.383       .  S
C1658      F1662   1.383       .  S
C1658      F1663   1.383       .  S
C1658      F1664   1.385       .  S
C1665      H1672   1.083       .  S
C1665      C1666   1.418       .  A
C1665      C1670   1.410   1_554  A
C1666      C1667   1.401   1_554  A
C1667      C1668   1.404       .  A
C1667      C1674   1.518       .  S
C1668      H1673   1.080       .  S
C1668      C1669   1.417       .  A
C1669      C1670   1.406       .  A
C1670      C1671   1.516       .  S
C1671      F1675   1.384   1_556  S
C1671      F1676   1.382       .  S
C1671      F1677   1.384       .  S
C1674      F1678   1.383       .  S
C1674      F1679   1.383   1_556  S
C1674      F1680   1.383       .  S
C1681      H1688   1.081       .  S
C1681      C1682   1.408       .  A
C1681      C1686   1.412       .  A
C1682      C1683   1.419       .  A
C1683      C1684   1.412       .  A
C1683      C1690   1.520       .  S
C1684      H1689   1.082       .  S
C1684      C1685   1.408       .  A
C1685      C1686   1.419       .  A
C1686      C1687   1.519       .  S
C1687      F1691   1.385       .  S
C1687      F1692   1.383       .  S
C1687      F1693   1.384       .  S
C1690      F1694   1.384       .  S
C1690      F1695   1.382       .  S
C1690      F1696   1.385       .  S
C1697      H1704   1.083       .  S
C1697      C1698   1.398       .  A
C1697      C1702   1.401   1_455  A
C1698      C1699   1.412       .  A
C1699      C1700   1.404   1_455  A
C1699      C1706   1.515       .  S
C1700      H1705   1.084       .  S
C1700      C1701   1.400       .  A
C1701      C1702   1.415       .  A
C1702      C1703   1.519       .  S
C1703      F1707   1.384       .  S
C1703      F1708   1.383       .  S
C1703      F1709   1.383       .  S
C1706      F1710   1.378       .  S
C1706      F1711   1.383       .  S
C1706      F1712   1.385       .  S
C1713      H1720   1.083       .  S
C1713      C1714   1.409       .  A
C1713      C1718   1.422       .  A
C1714      C1715   1.414       .  A
C1715      C1716   1.395       .  A
C1715      C1722   1.514       .  S
C1716      H1721   1.079       .  S
C1716      C1717   1.399       .  A
C1717      C1718   1.419       .  A
C1718      C1719   1.512       .  S
C1719      F1723   1.384       .  S
C1719      F1724   1.378       .  S
C1719      F1725   1.383       .  S
C1722      F1726   1.381       .  S
C1722      F1727   1.383       .  S
C1722      F1728   1.384       .  S
C1729      H1736   1.084       .  S
C1729      C1730   1.392       .  A
C1729      C1734   1.405       .  A
C1730      C1731   1.415       .  A
C1731      C1732   1.406       .  A
C1731      C1738   1.517       .  S
C1732      H1737   1.082       .  S
C1732      C1733   1.406       .  A
C1733      C1734   1.419       .  A
C1734      C1735   1.507       .  S
C1735      F1739   1.383       .  S
C1735      F1740   1.382       .  S
C1735      F1741   1.384       .  S
C1738      F1742   1.379       .  S
C1738      F1743   1.382       .  S
C1738      F1744   1.382       .  S
C1745      H1752   1.085       .  S
C1745      C1746   1.397   1_546  A
C1745      C1750   1.406   1_545  A
C1746      C1747   1.418       .  A
C1747      C1748   1.414       .  A
C1747      C1754   1.514       .  S
C1748      H1753   1.083       .  S
C1748      C1749   1.405   1_554  A
C1749      C1750   1.428       .  A
C1750      C1751   1.516   1_565  S
C1751      F1755   1.385       .  S
C1751      F1756   1.382   1_545  S
C1751      F1757   1.382       .  S
C1754      F1758   1.383       .  S
C1754      F1759   1.379       .  S
C1754      F1760   1.385       .  S
C1761      H1768   1.083       .  S
C1761      C1762   1.410       .  A
C1761      C1766   1.415       .  A
C1762      C1763   1.409   1_554  A
C1763      C1764   1.413       .  A
C1763      C1770   1.517       .  S
C1764      H1769   1.082       .  S
C1764      C1765   1.417       .  A
C1765      C1766   1.420   1_556  A
C1766      C1767   1.517       .  S
C1767      F1771   1.385       .  S
C1767      F1772   1.383   1_554  S
C1767      F1773   1.379       .  S
C1770      F1774   1.383       .  S
C1770      F1775   1.383   1_556  S
C1770      F1776   1.384       .  S
C1777      H1784   1.082       .  S
C1777      C1778   1.413       .  A
C1777      C1782   1.408       .  A
C1778      C1779   1.420       .  A
C1779      C1780   1.423       .  A
C1779      C1786   1.514       .  S
C1780      H1785   1.083       .  S
C1780      C1781   1.409       .  A
C1781      C1782   1.413       .  A
C1782      C1783   1.520       .  S
C1783      F1787   1.385       .  S
C1783      F1788   1.384       .  S
C1783      F1789   1.382       .  S
C1786      F1790   1.383       .  S
C1786      F1791   1.381       .  S
C1786      F1792   1.384       .  S
C1793      H1800   1.084       .  S
C1793      C1794   1.403       .  A
C1793      C1798   1.401       .  A
C1794      C1795   1.422       .  A
C1795      C1796   1.403       .  A
C1795      C1802   1.520       .  S
C1796      H1801   1.082       .  S
C1796      C1797   1.401       .  A
C1797      C1798   1.416       .  A
C1798      C1799   1.520       .  S
C1799      F1803   1.384       .  S
C1799      F1804   1.383       .  S
C1799      F1805   1.383       .  S
C1802      F1806   1.383       .  S
C1802      F1807   1.381       .  S
C1802      F1808   1.385       .  S
C1809      H1816   1.077       .  S
C1809      C1810   1.411       .  A
C1809      C1814   1.401       .  A
C1810      C1811   1.425       .  A
C1811      C1812   1.408       .  A
C1811      C1818   1.520       .  S
C1812      H1817   1.083       .  S
C1812      C1813   1.398       .  A
C1813      C1814   1.407       .  A
C1814      C1815   1.520       .  S
C1815      F1819   1.385       .  S
C1815      F1820   1.383       .  S
C1815      F1821   1.381       .  S
C1818      F1822   1.382       .  S
C1818      F1823   1.384   1_545  S
C1818      F1824   1.385   1_545  S
C1825      H1832   1.083       .  S
C1825      C1826   1.410       .  A
C1825      C1830   1.412   1_455  A
C1826      C1827   1.437       .  A
C1827      C1828   1.409   1_455  A
C1827      C1834   1.521       .  S
C1828      H1833   1.083       .  S
C1828      C1829   1.392       .  A
C1829      C1830   1.410       .  A
C1830      C1831   1.516       .  S
C1831      F1835   1.384   1_655  S
C1831      F1836   1.383       .  S
C1831      F1837   1.383       .  S
C1834      F1838   1.382       .  S
C1834      F1839   1.382       .  S
C1834      F1840   1.386       .  S
C1841      H1848   1.084       .  S
C1841      C1842   1.404       .  A
C1841      C1846   1.405       .  A
C1842      C1843   1.418       .  A
C1843      C1844   1.406       .  A
C1843      C1850   1.517       .  S
C1844      H1849   1.084       .  S
C1844      C1845   1.404       .  A
C1845      C1846   1.419       .  A
C1846      C1847   1.517       .  S
C1847      F1851   1.385       .  S
C1847      F1852   1.376       .  S
C1847      F1853   1.383       .  S
C1850      F1854   1.382       .  S
C1850      F1855   1.381       .  S
C1850      F1856   1.385       .  S
C1857      H1864   1.081       .  S
C1857      C1858   1.416       .  A
C1857      C1862   1.413       .  A
C1858      C1859   1.424       .  A
C1859      C1860   1.415       .  A
C1859      C1866   1.517       .  S
C1860      H1865   1.082       .  S
C1860      C1861   1.411       .  A
C1861      C1862   1.418       .  A
C1862      C1863   1.518       .  S
C1863      F1867   1.385       .  S
C1863      F1868   1.381       .  S
C1863      F1869   1.383       .  S
C1866      F1870   1.383       .  S
C1866      F1871   1.382       .  S
C1866      F1872   1.385       .  S
