geometry optimzed in LAMMPS
_audit_creation_date              2020-12-01 
_audit_creation_method            'lammps2cif' 
_symmetry_space_group_name_H-M    'P1' 
_symmetry_Int_Tables_number       1 
_symmetry_cell_setting            triclinic 
loop_ 
_symmetry_equiv_pos_as_xyz 
  x,y,z 
_cell_length_a                    29.04113715 
_cell_length_b                    28.457654450935898 
_cell_length_c                    27.704939371790566 
_cell_angle_alpha                 89.2241954480503 
_cell_angle_beta                  91.20822255653846 
_cell_angle_gamma                 89.87366276030164 
loop_ 
_atom_site_label 
_atom_site_type_symbol 
_atom_site_fract_x 
_atom_site_fract_y 
_atom_site_fract_z 
_atom_site_charge 
O1          O  0.18031918  0.17210657  0.74897942    -0.75600
O2          O  0.10439850  0.06347184  0.73498333    -0.75600
O3          O  0.18302677  0.07951855  0.78126357    -0.75700
O4          O  0.10182407  0.15568283  0.70254826    -0.75700
O5          O  0.13618169  0.13316732  0.63528449    -0.75600
O6          O  0.21686636  0.05723988  0.71361262    -0.75600
O7          O  0.13848003  0.04076109  0.66769291    -0.75600
O8          O  0.21418016  0.14905037  0.68171154    -0.75700
Ni9        Ni  0.14080800  0.11833951  0.74433724     1.25400
Ni10       Ni  0.17790978  0.09438532  0.67228560     1.25400
C11         C  0.20927871  0.17894499  0.71564042     0.86600
C12         C  0.10945468  0.03373132  0.70091153     0.86500
C13         C  0.21221713  0.05421517  0.75940256     0.86600
C14         C  0.10719396  0.15888488  0.65677638     0.86700
O15         O  0.38998453  0.08241747  0.77611984    -0.76000
O16         O  0.46612544  0.15786631  0.69624463    -0.75600
O17         O  0.38972054  0.17440342  0.74259527    -0.75700
O18         O  0.46619049  0.06632418  0.72933497    -0.75700
O19         O  0.42929965  0.04241985  0.66266204    -0.75600
O20         O  0.35267700  0.15084150  0.67583765    -0.75600
O21         O  0.42932375  0.13464907  0.62912488    -0.75600
O22         O  0.35277523  0.05914841  0.70925570    -0.75700
Ni23       Ni  0.42961574  0.12097454  0.73835536     1.25400
Ni24       Ni  0.38936893  0.09608744  0.66686220     1.25400
C25         C  0.36016617  0.05651254  0.75499715     0.86600
C26         C  0.45927034  0.16031080  0.65046220     0.86500
C27         C  0.35894460  0.18089042  0.70962184     0.86600
C28         C  0.45990271  0.03596102  0.69584728     0.86700
C29         C  0.03352089  0.25841224  0.62042596     0.79100
N30         N  0.49284146  0.23433190  0.62161375    -0.79200
C31         C  0.49319292  0.18630869  0.62363228     0.81500
N32         N  0.03339457  0.16338513  0.62460434    -0.79200
C33         C  0.07335342  0.18613969  0.62920909     0.81600
N34         N  0.07390389  0.23417588  0.62746256    -0.80900
C35         C  0.03456629  0.43824844  0.65382594     0.79100
N36         N  0.07530183  0.45969292  0.66696074    -0.79200
C37         C  0.07448864  0.99715028  0.69720903     0.81500
N38         N  0.03444612  0.01251176  0.71306876    -0.79200
C39         C  0.49460875  0.49864173  0.69379084     0.81600
N40         N  0.49392199  0.46107192  0.66363335    -0.80900
C41         C  0.28562315  0.27627988  0.75716991     0.79100
N42         N  0.32573295  0.25493388  0.74321565    -0.79200
C43         C  0.32369209  0.21726995  0.71342194     0.81500
N44         N  0.28294477  0.20179284  0.69832088    -0.79200
C45         C  0.24399877  0.21593575  0.71793006     0.81600
N46         N  0.24457932  0.25347954  0.74820746    -0.80900
C47         C  0.28930752  0.45634541  0.78896078     0.79100
N48         N  0.32914924  0.48123600  0.78392336    -0.79200
C49         C  0.32777186  0.02922257  0.78263413     0.81500
N50         N  0.28743586  0.05142101  0.78615483    -0.79200
C51         C  0.24762092  0.02796656  0.78572472     0.81600
N52         N  0.24814712  0.47989150  0.78684379    -0.80900
C53         C  0.03466772  0.39608148  0.61933726     0.85300
C54         C  0.49345067  0.39702453  0.58474152    -0.54900
C55         C  0.49047228  0.36095299  0.55289399     0.08300
C56         C  0.03375333  0.32767077  0.55623903     0.19200
C57         C  0.03424441  0.34569142  0.64229117    -0.55600
C58         C  0.03386327  0.30990150  0.60896172     0.08400
C59         C  0.07596032  0.39586996  0.58653647    -0.55200
C60         C  0.07765118  0.35994761  0.55435187     0.08900
H61         H  0.46592035  0.42252618  0.58842807     0.13400
H62         H  0.03336306  0.29900043  0.52943746    -0.00800
H63         H  0.03425193  0.33911611  0.68100050     0.13800
H64         H  0.10388895  0.42091392  0.59094539     0.13500
O65         O  0.33123189  0.48961422  0.38887614    -0.75600
O66         O  0.23536119  0.41756268  0.44633560    -0.75600
O67         O  0.23671020  0.49052923  0.38446323    -0.75700
O68         O  0.32878354  0.41638750  0.45030180    -0.75700
O69         O  0.32740780  0.46140735  0.51576716    -0.75600
O70         O  0.23616392  0.03558737  0.44984411    -0.75600
O71         O  0.23373163  0.46321965  0.51131827    -0.75600
O72         O  0.32996970  0.03385188  0.45481516    -0.75700
Ni73       Ni  0.28301812  0.45160182  0.41526624     1.25400
Ni74       Ni  0.28176019  0.50044899  0.48502968     1.25400
C75         C  0.34643437  0.02406946  0.41351835     0.86600
C76         C  0.21924996  0.42798271  0.48765566     0.86500
C77         C  0.22128766  0.02572216  0.40721000     0.86600
C78         C  0.34317563  0.42645209  0.49298215     0.86700
O79         O  0.33233926  0.21406856  0.39606796    -0.75600
O80         O  0.23641313  0.28452166  0.45424279    -0.75600
O81         O  0.33144026  0.28438862  0.45778846    -0.75700
O82         O  0.23780826  0.21479709  0.39179157    -0.75700
O83         O  0.23657370  0.16722417  0.45648337    -0.75600
O84         O  0.33006257  0.23833663  0.52351079    -0.75600
O85         O  0.23448407  0.23790287  0.51950228    -0.75600
O86         O  0.33110131  0.16734130  0.46140325    -0.75700
Ni87       Ni  0.28452320  0.25145902  0.42298664     1.25400
Ni88       Ni  0.28300278  0.20068379  0.49242647     1.25400
C89         C  0.34765944  0.17866095  0.42021028     0.86600
C90         C  0.21914367  0.27327957  0.49523419     0.86500
C91         C  0.34686396  0.27319304  0.50020228     0.86600
C92         C  0.22161959  0.17919630  0.41398179     0.86700
C93         C  0.12454538  0.10420014  0.37248065     0.79100
N94         N  0.14765092  0.14544244  0.38130108    -0.79200
C95         C  0.19442123  0.14433041  0.38814719     0.81500
N96         N  0.21668772  0.10354532  0.38630578    -0.79200
C97         C  0.19472484  0.06266061  0.38298483     0.81600
N98         N  0.14797630  0.06228417  0.37636417    -0.80900
C99         C  0.44432326  0.10172026  0.38193053     0.79100
N100        N  0.42146872  0.14310456  0.39133099    -0.79200
C101        C  0.37495321  0.14260941  0.39753855     0.81500
N102        N  0.35241344  0.10221795  0.39560414    -0.79200
C103        C  0.37386892  0.06116306  0.39228919     0.81600
N104        N  0.42035845  0.06007872  0.38570162    -0.80900
C105        C  0.12284301  0.35356059  0.52917473     0.79100
N106        N  0.14669947  0.39388616  0.51851771    -0.79200
C107        C  0.19254442  0.39190694  0.51086694     0.81500
N108        N  0.21400797  0.35086471  0.51256329    -0.79200
C109        C  0.19166593  0.31036434  0.51698264     0.81600
N110        N  0.14499654  0.31062195  0.52550234    -0.80900
C111        C  0.44338628  0.35379716  0.53006916     0.79100
N112        N  0.41787059  0.39359711  0.52066704    -0.79200
C113        C  0.37136133  0.39135950  0.51741585     0.81500
N114        N  0.35062356  0.35000304  0.52145238    -0.79200
C115        C  0.37422609  0.30969731  0.52382265     0.81600
N116        N  0.42161969  0.31073694  0.52829765    -0.80900
O117        O  0.47168579  0.40259385  0.16542680    -0.75600
O118        O  0.39753403  0.29310134  0.14719932    -0.75600
O119        O  0.39341975  0.38607664  0.11804509    -0.75700
O120        O  0.47586974  0.31010538  0.19432970    -0.75700
O121        O  0.44075035  0.32915850  0.26240208    -0.75600
O122        O  0.35806071  0.40419503  0.18625226    -0.75600
O123        O  0.36292423  0.31229354  0.21539740    -0.75600
O124        O  0.43611524  0.42191681  0.23303123    -0.75700
Ni125      Ni  0.43621806  0.34738134  0.15384454     1.25400
Ni126      Ni  0.39798572  0.36748166  0.22658368     1.25400
C127        C  0.46586313  0.43056038  0.20088801     0.86600
C128        C  0.36805643  0.28454949  0.17971032     0.86500
C129        C  0.36297302  0.40893798  0.14065487     0.86600
C130        C  0.47070560  0.30556998  0.23995285     0.86700
O131        O  0.14927176  0.32246977  0.26499817    -0.75600
O132        O  0.22196862  0.40853739  0.19080018    -0.75600
O133        O  0.14717102  0.41864935  0.24243809    -0.75700
O134        O  0.22372359  0.31307624  0.21326711    -0.75700
O135        O  0.18555911  0.29557526  0.14525116    -0.75600
O136        O  0.10904294  0.40067999  0.17459739    -0.75600
O137        O  0.18341670  0.39143919  0.12285876    -0.75600
O138        O  0.11115636  0.30514304  0.19688232    -0.75700
Ni139      Ni  0.18726528  0.36610960  0.23020029     1.25400
Ni140      Ni  0.14554269  0.34780742  0.15762527     1.25400
C141        C  0.11939081  0.29785732  0.24209401     0.86600
C142        C  0.21362621  0.41575574  0.14559475     0.86500
C143        C  0.11585949  0.42809286  0.21075910     0.86600
C144        C  0.21686395  0.28600754  0.17684159     0.86700
C145        C  0.03827785  0.02364598  0.25645395     0.79100
N146        N  0.99860732  0.50244499  0.23968385    -0.79200
C147        C  0.00088900  0.46660383  0.20800492     0.81500
N148        N  0.04170439  0.45193253  0.19428094    -0.79200
C149        C  0.08067695  0.46510759  0.21619259     0.81600
N150        N  0.08003986  0.50190360  0.24812692    -0.80900
C151        C  0.29281334  0.19049730  0.12915264     0.79100
N152        N  0.33324107  0.21225748  0.14293485    -0.79200
C153        C  0.33232259  0.24912242  0.17347764     0.81500
N154        N  0.29219335  0.26430400  0.18875125    -0.79200
C155        C  0.25228010  0.24977332  0.17015126     0.81600
N156        N  0.25150982  0.21210541  0.13943847    -0.80900
C157        C  0.03931612  0.20248242  0.27657447     0.79100
N158        N  0.08196339  0.22320922  0.27224886    -0.79200
C159        C  0.08437025  0.27163656  0.26798440     0.81500
N160        N  0.04584450  0.29731383  0.26785159    -0.79200
C161        C  0.00454028  0.27750594  0.26596132     0.81600
N162        N  0.00106407  0.23011389  0.26927996    -0.80900
C163        C  0.29244027  0.01126387  0.10745398     0.79100
N164        N  0.33116389  0.98377850  0.11145598    -0.79200
C165        C  0.32807142  0.43632946  0.11535897     0.81500
N166        N  0.28674797  0.41644802  0.11695378    -0.79200
C167        C  0.24827889  0.44203584  0.11923181     0.81600
N168        N  0.25032956  0.99038260  0.11479045    -0.80900
C169        C  0.49050389  0.10331293  0.35491468     0.85300
C170        C  0.99466710  0.06330134  0.31924442    -0.54900
C171        C  0.03253385  0.06405799  0.29093499     0.08300
C172        C  0.06357299  0.10865128  0.30025795     0.19200
C173        C  0.03714506  0.10240776  0.38373202    -0.55600
C174        C  0.07549477  0.10504808  0.35485908     0.08400
C175        C  0.99299688  0.14758501  0.32349852    -0.55200
C176        C  0.03127189  0.15304820  0.29631338     0.08900
H177        H  0.46949736  0.03522229  0.31724768     0.13400
H178        H  0.09426317  0.11086141  0.27710760    -0.00800
H179        H  0.03955185  0.09977359  0.42280758     0.13800
H180        H  0.46721882  0.17507827  0.32578913     0.13500
O181        O  0.50355839  0.18697402  0.92558589    -0.75600
O182        O  0.10960322  0.26331338  0.91135221    -0.75600
O183        O  0.09428239  0.18397379  0.95634962    -0.75700
O184        O  0.01846609  0.26617063  0.88002840    -0.75700
O185        O  0.49731118  0.30113710  0.94777032    -0.75600
O186        O  0.07410072  0.21827062  0.02476901    -0.75600
O187        O  0.08896341  0.29868780  0.97900849    -0.75600
O188        O  0.48195528  0.22106280  0.99347211    -0.75700
Ni189      Ni  0.05710180  0.22364845  0.91607052     1.25400
Ni190      Ni  0.03505185  0.26143148  0.98874841     1.25400
C191        C  0.47424395  0.19226815  0.95927488     0.86600
C192        C  0.11763533  0.29267138  0.94479139     0.86500
C193        C  0.09859026  0.18872550  0.00210678     0.86600
C194        C  0.49286800  0.29496235  0.90211618     0.86700
O195        O  0.08979341  0.04880273  0.93919134    -0.75600
O196        O  0.01022857  0.47089656  0.86126138    -0.75600
O197        O  0.99721331  0.04920806  0.90888810    -0.75700
O198        O  0.10356033  0.47100517  0.89092444    -0.75700
O199        O  0.08169094  0.43388295  0.95786418    -0.75600
O200        O  0.47687477  0.01199369  0.97648485    -0.75600
O201        O  0.98972607  0.43477482  0.92942919    -0.75600
O202        O  0.06925155  0.01074239  0.00623302    -0.75700
Ni203      Ni  0.05071391  0.01171124  0.89757843     1.25400
Ni204      Ni  0.02882920  0.47124498  0.96969837     1.25400
C205        C  0.09504289  0.04024825  0.98467960     0.86600
C206        C  0.48468917  0.44165245  0.88388978     0.86500
C207        C  0.46864413  0.04253894  0.94329111     0.86600
C208        C  0.11137173  0.44069028  0.92451743     0.86700
C209        C  0.37448543  0.11545771  0.99289810     0.79100
N210        N  0.39880560  0.15696016  0.98817404    -0.79200
C211        C  0.43619463  0.15829424  0.95888282     0.81500
N212        N  0.44829724  0.11979796  0.93577982    -0.79200
C213        C  0.43233172  0.07789604  0.94789146     0.81600
N214        N  0.39483859  0.07485757  0.97678280    -0.80900
C215        C  0.21059979  0.36295821  0.89143869     0.79100
N216        N  0.18728451  0.40522227  0.89491937    -0.79200
C217        C  0.15051710  0.40728794  0.92549577     0.81500
N218        N  0.13956803  0.36940673  0.95148278    -0.79200
C219        C  0.15435447  0.32711047  0.94011260     0.81600
N220        N  0.19017800  0.32320334  0.90963916    -0.80900
C221        C  0.19589426  0.11049959  0.02462958     0.79100
N222        N  0.17157220  0.07055627  0.01351254    -0.79200
C223        C  0.12426777  0.07172194  0.01299272     0.81500
N224        N  0.10245555  0.11151342  0.02317130    -0.79200
C225        C  0.12497547  0.15214940  0.02707362     0.81600
N226        N  0.17218767  0.15203020  0.02793906    -0.80900
C227        C  0.38849499  0.36223773  0.86786385     0.79100
N228        N  0.41545247  0.32375557  0.87856584    -0.79200
C229        C  0.46207988  0.32611057  0.87484080     0.81500
N230        N  0.48157745  0.36626400  0.86101346    -0.79200
C231        C  0.45739702  0.40635266  0.85901684     0.81600
N232        N  0.41001838  0.40481249  0.86178789    -0.80900
C233        C  0.33214640  0.11224504  0.02619939     0.85300
C234        C  0.33382275  0.06758583  0.05708687    -0.54900
C235        C  0.29853225  0.06108820  0.08825712     0.08300
C236        C  0.26529496  0.10488185  0.08875132     0.19200
C237        C  0.28234886  0.11242598  0.00295166    -0.55600
C238        C  0.24711294  0.10879336  0.03601933     0.08400
C239        C  0.33110426  0.15175707  0.06248521    -0.55200
C240        C  0.29644134  0.14994658  0.09480566     0.08900
H241        H  0.35950638  0.04061042  0.05121731     0.13400
H242        H  0.23754480  0.10191247  0.11558768    -0.00800
H243        H  0.27580170  0.11584514  0.96438846     0.13800
H244        H  0.35561177  0.18053715  0.06171737     0.13500
C245        C  0.28809662  0.31856274  0.79127302     0.85300
C246        C  0.24933270  0.31982435  0.82740850    -0.54900
C247        C  0.25108834  0.35622969  0.85892961     0.08300
C248        C  0.29545975  0.38753666  0.85299182     0.19200
C249        C  0.28745038  0.36875682  0.76761217    -0.55600
C250        C  0.29099405  0.40488004  0.80041107     0.08400
C251        C  0.33204954  0.31721418  0.82239185    -0.55200
C252        C  0.33859699  0.35378239  0.85288424     0.08900
H253        H  0.22098693  0.29500737  0.82652529     0.13400
H254        H  0.29838055  0.41637956  0.87948107    -0.00800
H255        H  0.28389433  0.37494318  0.72892274     0.13800
H256        H  0.35900840  0.29149891  0.81654523     0.13500
O257        O  0.18031914  0.67210680  0.74897903    -0.75600
O258        O  0.10439843  0.56347193  0.73498357    -0.75600
O259        O  0.18302677  0.57951877  0.78126351    -0.75700
O260        O  0.10182407  0.65568285  0.70254817    -0.75700
O261        O  0.13618145  0.63316699  0.63528443    -0.75600
O262        O  0.21686622  0.55723981  0.71361264    -0.75600
O263        O  0.13847986  0.54076099  0.66769320    -0.75600
O264        O  0.21418003  0.64905029  0.68171125    -0.75700
Ni265      Ni  0.14080802  0.61833965  0.74433712     1.25400
Ni266      Ni  0.17790962  0.59438519  0.67228558     1.25400
C267        C  0.20927861  0.67894509  0.71563996     0.86600
C268        C  0.10945454  0.53373130  0.70091182     0.86500
C269        C  0.21221702  0.55421520  0.75940258     0.86600
C270        C  0.10719374  0.65888465  0.65677628     0.86700
O271        O  0.38998407  0.58241743  0.77611959    -0.76000
O272        O  0.46612488  0.65786615  0.69624431    -0.75600
O273        O  0.38971999  0.67440326  0.74259472    -0.75700
O274        O  0.46619003  0.56632413  0.72933492    -0.75700
O275        O  0.42929936  0.54241948  0.66266200    -0.75600
O276        O  0.35267643  0.65084094  0.67583727    -0.75600
O277        O  0.42932335  0.63464869  0.62912455    -0.75600
O278        O  0.35277505  0.55914775  0.70925552    -0.75700
Ni279      Ni  0.42961521  0.62097444  0.73835505     1.25400
Ni280      Ni  0.38936856  0.59608695  0.66686194     1.25400
C281        C  0.36016595  0.55651218  0.75499701     0.86600
C282        C  0.45926990  0.66031049  0.65046188     0.86500
C283        C  0.35894409  0.68089009  0.70962120     0.86600
C284        C  0.45990238  0.53596087  0.69584727     0.86700
C285        C  0.03352063  0.75841188  0.62042588     0.79100
N286        N  0.49284111  0.73433157  0.62161368    -0.79200
C287        C  0.49319259  0.68630832  0.62363206     0.81500
N288        N  0.03339427  0.66338478  0.62460407    -0.79200
C289        C  0.07335314  0.68613932  0.62920895     0.81600
N290        N  0.07390360  0.73417554  0.62746234    -0.80900
C291        C  0.03456646  0.93824840  0.65382571     0.79100
N292        N  0.07530200  0.95969292  0.66696051    -0.79200
C293        C  0.07448847  0.49715030  0.69720931     0.81500
N294        N  0.03444594  0.51251182  0.71306887    -0.79200
C295        C  0.49460888  0.99864165  0.69379074     0.81600
N296        N  0.49392215  0.96107192  0.66363313    -0.80900
C297        C  0.28562334  0.77628002  0.75716888     0.79100
N298        N  0.32573297  0.75493381  0.74321458    -0.79200
C299        C  0.32369188  0.71726995  0.71342091     0.81500
N300        N  0.28294447  0.70179306  0.69831981    -0.79200
C301        C  0.24399862  0.71593597  0.71792929     0.81600
N302        N  0.24457937  0.75347977  0.74820667    -0.80900
C303        C  0.28930771  0.95634546  0.78896012     0.79100
N304        N  0.32914940  0.98123612  0.78392299    -0.79200
C305        C  0.32777171  0.52922240  0.78263420     0.81500
N306        N  0.28743578  0.55142097  0.78615481    -0.79200
C307        C  0.24762079  0.52796656  0.78572479     0.81600
N308        N  0.24814728  0.97989147  0.78684340    -0.80900
C309        C  0.03466791  0.89608126  0.61933716     0.85300
C310        C  0.49345123  0.89702443  0.58474114    -0.54900
C311        C  0.49047268  0.86095292  0.55289369     0.08300
C312        C  0.03375351  0.82767051  0.55623906     0.19200
C313        C  0.03424424  0.84569113  0.64229115    -0.55600
C314        C  0.03386306  0.80990118  0.60896164     0.08400
C315        C  0.07596062  0.89586942  0.58653660    -0.55200
C316        C  0.07765152  0.85994703  0.55435208     0.08900
H317        H  0.46592047  0.92252668  0.58842763     0.13400
H318        H  0.03336324  0.79899979  0.52943703    -0.00800
H319        H  0.03425155  0.83911582  0.68100020     0.13800
H320        H  0.10388958  0.92091359  0.59094561     0.13500
O321        O  0.33123200  0.98961426  0.38887677    -0.75600
O322        O  0.23536144  0.91756228  0.44633614    -0.75600
O323        O  0.23671014  0.99052891  0.38446399    -0.75700
O324        O  0.32878371  0.91638716  0.45030226    -0.75700
O325        O  0.32740773  0.96140687  0.51576776    -0.75600
O326        O  0.23616371  0.53558750  0.44984342    -0.75600
O327        O  0.23373142  0.96321948  0.51131868    -0.75600
O328        O  0.32996958  0.53385211  0.45481428    -0.75700
Ni329      Ni  0.28301827  0.95160152  0.41526676     1.25400
Ni330      Ni  0.28176020  0.00044872  0.48503034     1.25400
C331        C  0.34643422  0.52406953  0.41351752     0.86600
C332        C  0.21924998  0.92798243  0.48765609     0.86500
C333        C  0.22128757  0.52572241  0.40720924     0.86600
C334        C  0.34317561  0.92645163  0.49298274     0.86700
O335        O  0.33234011  0.71406880  0.39606749    -0.75600
O336        O  0.23641393  0.78452167  0.45424278    -0.75600
O337        O  0.33144115  0.78438863  0.45778822    -0.75700
O338        O  0.23780902  0.71479735  0.39179108    -0.75700
O339        O  0.23657422  0.66722412  0.45648261    -0.75600
O340        O  0.33006300  0.73833641  0.52351036    -0.75600
O341        O  0.23448457  0.73790245  0.51950191    -0.75600
O342        O  0.33110183  0.66734123  0.46140252    -0.75700
Ni343      Ni  0.28452402  0.75145919  0.42298632     1.25400
Ni344      Ni  0.28300331  0.70068364  0.49242585     1.25400
C345        C  0.34766010  0.67866099  0.42020964     0.86600
C346        C  0.21914428  0.77327932  0.49523407     0.86500
C347        C  0.34686459  0.77319285  0.50020207     0.86600
C348        C  0.22162020  0.67919648  0.41398107     0.86700
C349        C  0.12454560  0.60420063  0.37247963     0.79100
N350        N  0.14765129  0.64544288  0.38130025    -0.79200
C351        C  0.19442164  0.64433070  0.38814622     0.81500
N352        N  0.21668799  0.60354556  0.38630472    -0.79200
C353        C  0.19472492  0.56266087  0.38298388     0.81600
N354        N  0.14797641  0.56228461  0.37636310    -0.80900
C355        C  0.44432336  0.60171980  0.38192923     0.79100
N356        N  0.42146913  0.64310419  0.39133002    -0.79200
C357        C  0.37495364  0.64260933  0.39753778     0.81500
N358        N  0.35241364  0.60221801  0.39560339    -0.79200
C359        C  0.37386883  0.56116299  0.39228816     0.81600
N360        N  0.42035828  0.56007837  0.38570015    -0.80900
C361        C  0.12284331  0.85356001  0.52917485     0.79100
N362        N  0.14669966  0.89388567  0.51851799    -0.79200
C363        C  0.19254460  0.89190659  0.51086735     0.81500
N364        N  0.21400829  0.85086442  0.51256357    -0.79200
C365        C  0.19166639  0.81036396  0.51698267     0.81600
N366        N  0.14499695  0.81062142  0.52550235    -0.80900
C367        C  0.44338654  0.85379700  0.53006920     0.79100
N368        N  0.41787067  0.89359686  0.52066734    -0.79200
C369        C  0.37136139  0.89135908  0.51741639     0.81500
N370        N  0.35062380  0.85000255  0.52145304    -0.79200
C371        C  0.37422654  0.80969691  0.52382289     0.81600
N372        N  0.42162013  0.81073672  0.52829759    -0.80900
O373        O  0.47168510  0.90259415  0.16542788    -0.75600
O374        O  0.39753345  0.79310161  0.14719975    -0.75600
O375        O  0.39341926  0.88607710  0.11804611    -0.75700
O376        O  0.47586920  0.81010537  0.19432997    -0.75700
O377        O  0.44074993  0.82915800  0.26240260    -0.75600
O378        O  0.35806008  0.90419487  0.18625340    -0.75600
O379        O  0.36292372  0.81229327  0.21539805    -0.75600
O380        O  0.43611449  0.92191665  0.23303242    -0.75700
Ni381      Ni  0.43621750  0.84738160  0.15384525     1.25400
Ni382      Ni  0.39798517  0.86748136  0.22658460     1.25400
C383        C  0.46586232  0.93056054  0.20088917     0.86600
C384        C  0.36805583  0.78454954  0.17971069     0.86500
C385        C  0.36297237  0.90893808  0.14065601     0.86600
C386        C  0.47070509  0.80556959  0.23995308     0.86700
O387        O  0.14927102  0.82246946  0.26499859    -0.75600
O388        O  0.22196770  0.90853779  0.19080111    -0.75600
O389        O  0.14717038  0.91864925  0.24243951    -0.75700
O390        O  0.22372276  0.81307639  0.21326718    -0.75700
O391        O  0.18555807  0.79557598  0.14525120    -0.75600
O392        O  0.10904228  0.90068065  0.17459860    -0.75600
O393        O  0.18341565  0.89144019  0.12285961    -0.75600
O394        O  0.11115543  0.80514348  0.19688264    -0.75700
Ni395      Ni  0.18726450  0.86610961  0.23020099     1.25400
Ni396      Ni  0.14554173  0.84780815  0.15762588     1.25400
C397        C  0.11939001  0.79785728  0.24209424     0.86600
C398        C  0.21362530  0.91575642  0.14559571     0.86500
C399        C  0.11585885  0.92809314  0.21076053     0.86600
C400        C  0.21686302  0.78600795  0.17684145     0.86700
C401        C  0.03827853  0.52364556  0.25645289     0.79100
N402        N  0.99860658  0.00244536  0.23968495    -0.79200
C403        C  0.00088836  0.96660391  0.20800634     0.81500
N404        N  0.04170370  0.95193241  0.19428277    -0.79200
C405        C  0.08067632  0.96510770  0.21619431     0.81600
N406        N  0.08003917  0.00190395  0.24812826    -0.80900
C407        C  0.29281260  0.69049739  0.12915287     0.79100
N408        N  0.33324036  0.71225753  0.14293520    -0.79200
C409        C  0.33232178  0.74912276  0.17347761     0.81500
N410        N  0.29219249  0.76430467  0.18875066    -0.79200
C411        C  0.25227926  0.74977386  0.17015079     0.81600
N412        N  0.25150906  0.71210566  0.13943826    -0.80900
C413        C  0.03931558  0.70248182  0.27657321     0.79100
N414        N  0.08196286  0.72320872  0.27224794    -0.79200
C415        C  0.08436956  0.77163615  0.26798437     0.81500
N416        N  0.04584382  0.79731327  0.26785196    -0.79200
C417        C  0.00453960  0.77750531  0.26596115     0.81600
N418        N  0.00106354  0.73011319  0.26927894    -0.80900
C419        C  0.29244059  0.51126376  0.10745353     0.79100
N420        N  0.33116438  0.48377853  0.11145534    -0.79200
C421        C  0.32807075  0.93632949  0.11536016     0.81500
N422        N  0.28674721  0.91644824  0.11695520    -0.79200
C423        C  0.24827825  0.94203626  0.11923288     0.81600
N424        N  0.25033002  0.49038223  0.11478979    -0.80900
C425        C  0.49050408  0.60331235  0.35491351     0.85300
C426        C  0.99466798  0.56330044  0.31924391    -0.54900
C427        C  0.03253455  0.56405729  0.29093429     0.08300
C428        C  0.06357316  0.60865106  0.30025683     0.19200
C429        C  0.03714524  0.60240819  0.38373094    -0.55600
C430        C  0.07549497  0.60504863  0.35485802     0.08400
C431        C  0.99299640  0.64758396  0.32349653    -0.55200
C432        C  0.03127151  0.65304743  0.29631161     0.08900
H433        H  0.46949807  0.53522050  0.31724740     0.13400
H434        H  0.09426342  0.61086130  0.27710638    -0.00800
H435        H  0.03955200  0.59977421  0.42280644     0.13800
H436        H  0.46721842  0.67507640  0.32578679     0.13500
O437        O  0.50355881  0.68697465  0.92558650    -0.75600
O438        O  0.10960388  0.76331353  0.91135191    -0.75600
O439        O  0.09428274  0.68397443  0.95635006    -0.75700
O440        O  0.01846679  0.76617077  0.88002821    -0.75700
O441        O  0.49731207  0.80113783  0.94776983    -0.75600
O442        O  0.07410104  0.71827153  0.02476928    -0.75600
O443        O  0.08896423  0.79868833  0.97900802    -0.75600
O444        O  0.48195567  0.72106409  0.99347231    -0.75700
Ni445      Ni  0.05710233  0.72364883  0.91607068     1.25400
Ni446      Ni  0.03505243  0.76143239  0.98874825     1.25400
C447        C  0.47424433  0.69226907  0.95927547     0.86600
C448        C  0.11763616  0.79267159  0.94479099     0.86500
C449        C  0.09859052  0.68872621  0.00210721     0.86600
C450        C  0.49286884  0.79496271  0.90211574     0.86700
O451        O  0.08979267  0.54880317  0.93919065    -0.75600
O452        O  0.01022959  0.97089676  0.86126110    -0.75600
O453        O  0.99721253  0.54920845  0.90888759    -0.75700
O454        O  0.10356139  0.97100513  0.89092442    -0.75700
O455        O  0.08169196  0.93388241  0.95786381    -0.75600
O456        O  0.47687404  0.51199454  0.97648469    -0.75600
O457        O  0.98972696  0.93477453  0.92942856    -0.75600
O458        O  0.06925077  0.51074341  0.00623270    -0.75700
Ni459      Ni  0.05071299  0.51171141  0.89757815     1.25400
Ni460      Ni  0.02883006  0.97124428  0.96969821     1.25400
C461        C  0.09504225  0.54024897  0.98467896     0.86600
C462        C  0.48469027  0.94165250  0.88388922     0.86500
C463        C  0.46864341  0.54253964  0.94329073     0.86600
C464        C  0.11137281  0.94068998  0.92451725     0.86700
C465        C  0.37448534  0.61545863  0.99289830     0.79100
N466        N  0.39880590  0.65696096  0.98817488    -0.79200
C467        C  0.43619502  0.65829503  0.95888362     0.81500
N468        N  0.44829732  0.61979892  0.93578026    -0.79200
C469        C  0.43233131  0.57789697  0.94789120     0.81600
N470        N  0.39483805  0.57485857  0.97678238    -0.80900
C471        C  0.21060092  0.86295806  0.89143819     0.79100
N472        N  0.18728570  0.90522215  0.89491901    -0.79200
C473        C  0.15051841  0.90728784  0.92549550     0.81500
N474        N  0.13956956  0.86940665  0.95148278    -0.79200
C475        C  0.15435564  0.82711038  0.94011219     0.81600
N476        N  0.19017894  0.82320319  0.90963850    -0.80900
C477        C  0.19589408  0.61049972  0.02462970     0.79100
N478        N  0.17157190  0.57055666  0.01351190    -0.79200
C479        C  0.12426743  0.57172259  0.01299191     0.81500
N480        N  0.10245538  0.61151401  0.02317098    -0.79200
C481        C  0.12497543  0.65214984  0.02707405     0.81600
N482        N  0.17218766  0.65203038  0.02793977    -0.80900
C483        C  0.38849601  0.86223797  0.86786234     0.79100
N484        N  0.41545347  0.82375581  0.87856452    -0.79200
C485        C  0.46208086  0.82611084  0.87484002     0.81500
N486        N  0.48157859  0.86626423  0.86101273    -0.79200
C487        C  0.45739815  0.90635289  0.85901591     0.81600
N488        N  0.41001951  0.90481276  0.86178654    -0.80900
C489        C  0.33214628  0.61224565  0.02619961     0.85300
C490        C  0.33382293  0.56758644  0.05708707    -0.54900
C491        C  0.29853239  0.56108831  0.08825711     0.08300
C492        C  0.26529477  0.60488173  0.08875138     0.19200
C493        C  0.28234871  0.61242624  0.00295157    -0.55600
C494        C  0.24711279  0.60879326  0.03601943     0.08400
C495        C  0.33110378  0.65175757  0.06248545    -0.55200
C496        C  0.29644084  0.64994671  0.09480587     0.08900
H497        H  0.35950708  0.54061107  0.05121753     0.13400
H498        H  0.23754462  0.60191208  0.11558766    -0.00800
H499        H  0.27580177  0.61584545  0.96438966     0.13800
H500        H  0.35561107  0.68053782  0.06171771     0.13500
C501        C  0.28809715  0.81856277  0.79127201     0.85300
C502        C  0.24933382  0.81982414  0.82740803    -0.54900
C503        C  0.25108941  0.85622943  0.85892907     0.08300
C504        C  0.29546063  0.88753659  0.85299085     0.19200
C505        C  0.28745029  0.86875686  0.76761126    -0.55600
C506        C  0.29099425  0.90488003  0.80041020     0.08400
C507        C  0.33205066  0.81721440  0.82239010    -0.55200
C508        C  0.33859807  0.85378264  0.85288263     0.08900
H509        H  0.22098761  0.79500655  0.82652502     0.13400
H510        H  0.29838158  0.91637947  0.87948013    -0.00800
H511        H  0.28389375  0.87494321  0.72892190     0.13800
H512        H  0.35900904  0.79149995  0.81654322     0.13500
O513        O  0.68031923  0.17210657  0.74897942    -0.75600
O514        O  0.60439855  0.06347184  0.73498333    -0.75600
O515        O  0.68302680  0.07951858  0.78126361    -0.75700
O516        O  0.60182412  0.15568283  0.70254825    -0.75700
O517        O  0.63618174  0.13316734  0.63528448    -0.75600
O518        O  0.71686627  0.05723982  0.71361262    -0.75600
O519        O  0.63848005  0.04076110  0.66769289    -0.75600
O520        O  0.71418021  0.14905036  0.68171155    -0.75700
Ni521      Ni  0.64080804  0.11833952  0.74433725     1.25400
Ni522      Ni  0.67790979  0.09438532  0.67228559     1.25400
C523        C  0.70927875  0.17894499  0.71564042     0.86600
C524        C  0.60945473  0.03373133  0.70091153     0.86500
C525        C  0.71221712  0.05421516  0.75940258     0.86600
C526        C  0.60719400  0.15888488  0.65677638     0.86700
O527        O  0.88998456  0.08241748  0.77611984    -0.76000
O528        O  0.96612548  0.15786629  0.69624463    -0.75600
O529        O  0.88972059  0.17440343  0.74259527    -0.75700
O530        O  0.96619038  0.06632415  0.72933496    -0.75700
O531        O  0.92929953  0.04241982  0.66266203    -0.75600
O532        O  0.85267705  0.15084152  0.67583765    -0.75600
O533        O  0.92932379  0.13464905  0.62912488    -0.75600
O534        O  0.85277525  0.05914843  0.70925571    -0.75700
Ni535      Ni  0.92961575  0.12097454  0.73835536     1.25400
Ni536      Ni  0.88936894  0.09608744  0.66686220     1.25400
C537        C  0.86016621  0.05651254  0.75499715     0.86600
C538        C  0.95927037  0.16031079  0.65046220     0.86500
C539        C  0.85894466  0.18089043  0.70962185     0.86600
C540        C  0.95990260  0.03596101  0.69584727     0.86700
C541        C  0.53352091  0.25841224  0.62042596     0.79100
N542        N  0.99284144  0.23433190  0.62161375    -0.79200
C543        C  0.99319292  0.18630869  0.62363227     0.81500
N544        N  0.53339458  0.16338513  0.62460435    -0.79200
C545        C  0.57335344  0.18613969  0.62920909     0.81600
N546        N  0.57390391  0.23417588  0.62746255    -0.80900
C547        C  0.53456637  0.43824844  0.65382595     0.79100
N548        N  0.57530192  0.45969290  0.66696074    -0.79200
C549        C  0.57448870  0.99715028  0.69720903     0.81500
N550        N  0.53444620  0.01251174  0.71306877    -0.79200
C551        C  0.99460865  0.49864169  0.69379086     0.81600
N552        N  0.99392189  0.46107190  0.66363336    -0.80900
C553        C  0.78562318  0.27627988  0.75716991     0.79100
N554        N  0.82573300  0.25493388  0.74321566    -0.79200
C555        C  0.82369214  0.21726996  0.71342194     0.81500
N556        N  0.78294482  0.20179284  0.69832088    -0.79200
C557        C  0.74399882  0.21593574  0.71793005     0.81600
N558        N  0.74457936  0.25347954  0.74820746    -0.80900
C559        C  0.78930756  0.45634541  0.78896077     0.79100
N560        N  0.82914929  0.48123599  0.78392336    -0.79200
C561        C  0.82777191  0.02922257  0.78263413     0.81500
N562        N  0.78743590  0.05142102  0.78615482    -0.79200
C563        C  0.74762095  0.02796656  0.78572469     0.81600
N564        N  0.74814716  0.47989151  0.78684386    -0.80900
C565        C  0.53466772  0.39608147  0.61933726     0.85300
C566        C  0.99345072  0.39702454  0.58474148    -0.54900
C567        C  0.99047232  0.36095302  0.55289396     0.08300
C568        C  0.53375331  0.32767075  0.55623904     0.19200
C569        C  0.53424445  0.34569141  0.64229118    -0.55600
C570        C  0.53386329  0.30990149  0.60896172     0.08400
C571        C  0.57596022  0.39586997  0.58653641    -0.55200
C572        C  0.57765112  0.35994762  0.55435185     0.08900
H573        H  0.96592036  0.42252622  0.58842804     0.13400
H574        H  0.53336308  0.29900042  0.52943745    -0.00800
H575        H  0.53425200  0.33911610  0.68100049     0.13800
H576        H  0.60388895  0.42091411  0.59094529     0.13500
O577        O  0.83123193  0.48961422  0.38887615    -0.75600
O578        O  0.73536115  0.41756270  0.44633565    -0.75600
O579        O  0.73671025  0.49052924  0.38446322    -0.75700
O580        O  0.82878357  0.41638750  0.45030180    -0.75700
O581        O  0.82740774  0.46140736  0.51576715    -0.75600
O582        O  0.73616391  0.03558738  0.44984410    -0.75600
O583        O  0.73373155  0.46321972  0.51131828    -0.75600
O584        O  0.82996974  0.03385186  0.45481516    -0.75700
Ni585      Ni  0.78301814  0.45160181  0.41526625     1.25400
Ni586      Ni  0.78176012  0.50044901  0.48502968     1.25400
C587        C  0.84643440  0.02406945  0.41351836     0.86600
C588        C  0.71924987  0.42798278  0.48765570     0.86500
C589        C  0.72128759  0.02572214  0.40721004     0.86600
C590        C  0.84317562  0.42645209  0.49298217     0.86700
O591        O  0.83233931  0.21406856  0.39606796    -0.75600
O592        O  0.73641317  0.28452168  0.45424280    -0.75600
O593        O  0.83144031  0.28438861  0.45778846    -0.75700
O594        O  0.73780831  0.21479709  0.39179157    -0.75700
O595        O  0.73657374  0.16722417  0.45648336    -0.75600
O596        O  0.83006262  0.23833663  0.52351079    -0.75600
O597        O  0.73448410  0.23790290  0.51950228    -0.75600
O598        O  0.83110136  0.16734131  0.46140326    -0.75700
Ni599      Ni  0.78452325  0.25145902  0.42298664     1.25400
Ni600      Ni  0.78300283  0.20068380  0.49242648     1.25400
C601        C  0.84765947  0.17866095  0.42021028     0.86600
C602        C  0.71914371  0.27327961  0.49523421     0.86500
C603        C  0.84686402  0.27319303  0.50020228     0.86600
C604        C  0.72161964  0.17919629  0.41398179     0.86700
C605        C  0.62454532  0.10420017  0.37248067     0.79100
N606        N  0.64765094  0.14544246  0.38130109    -0.79200
C607        C  0.69442121  0.14433039  0.38814717     0.81500
N608        N  0.71668769  0.10354528  0.38630579    -0.79200
C609        C  0.69472474  0.06266058  0.38298485     0.81600
N610        N  0.64797625  0.06228417  0.37636418    -0.80900
C611        C  0.94432326  0.10172026  0.38193056     0.79100
N612        N  0.92146870  0.14310455  0.39133101    -0.79200
C613        C  0.87495321  0.14260940  0.39753854     0.81500
N614        N  0.85241341  0.10221795  0.39560411    -0.79200
C615        C  0.87386892  0.06116306  0.39228918     0.81600
N616        N  0.92035843  0.06007872  0.38570163    -0.80900
C617        C  0.62284294  0.35356061  0.52917471     0.79100
N618        N  0.64669940  0.39388620  0.51851777    -0.79200
C619        C  0.69254435  0.39190703  0.51086706     0.81500
N620        N  0.71400792  0.35086480  0.51256330    -0.79200
C621        C  0.69166591  0.31036441  0.51698262     0.81600
N622        N  0.64499652  0.31062196  0.52550235    -0.80900
C623        C  0.94338628  0.35379717  0.53006915     0.79100
N624        N  0.91787059  0.39359711  0.52066706    -0.79200
C625        C  0.87136130  0.39135949  0.51741587     0.81500
N626        N  0.85062357  0.35000303  0.52145238    -0.79200
C627        C  0.87422611  0.30969730  0.52382265     0.81600
N628        N  0.92161972  0.31073695  0.52829764    -0.80900
O629        O  0.97168580  0.40259384  0.16542686    -0.75600
O630        O  0.89753407  0.29310135  0.14719933    -0.75600
O631        O  0.89341980  0.38607663  0.11804512    -0.75700
O632        O  0.97586978  0.31010539  0.19432971    -0.75700
O633        O  0.94075042  0.32915849  0.26240215    -0.75600
O634        O  0.85806075  0.40419500  0.18625232    -0.75600
O635        O  0.86292429  0.31229350  0.21539747    -0.75600
O636        O  0.93611517  0.42191685  0.23303126    -0.75700
Ni637      Ni  0.93621810  0.34738134  0.15384457     1.25400
Ni638      Ni  0.89798573  0.36748165  0.22658380     1.25400
C639        C  0.96586310  0.43056038  0.20088803     0.86600
C640        C  0.86805648  0.28454948  0.17971033     0.86500
C641        C  0.86297307  0.40893796  0.14065492     0.86600
C642        C  0.97070564  0.30556997  0.23995287     0.86700
O643        O  0.64927156  0.32246985  0.26499818    -0.75600
O644        O  0.72196857  0.40853736  0.19080015    -0.75600
O645        O  0.64717099  0.41864937  0.24243810    -0.75700
O646        O  0.72372348  0.31307621  0.21326706    -0.75700
O647        O  0.68555909  0.29557530  0.14525104    -0.75600
O648        O  0.60904290  0.40068000  0.17459741    -0.75600
O649        O  0.68341666  0.39143921  0.12285872    -0.75600
O650        O  0.61115627  0.30514300  0.19688229    -0.75700
Ni651      Ni  0.68726516  0.36610959  0.23020025     1.25400
Ni652      Ni  0.64554260  0.34780741  0.15762521     1.25400
C653        C  0.61939069  0.29785731  0.24209400     0.86600
C654        C  0.71362621  0.41575570  0.14559469     0.86500
C655        C  0.61585949  0.42809289  0.21075910     0.86600
C656        C  0.71686395  0.28600757  0.17684149     0.86700
C657        C  0.53827777  0.02364601  0.25645396     0.79100
N658        N  0.49860734  0.50244499  0.23968384    -0.79200
C659        C  0.50088905  0.46660383  0.20800490     0.81500
N660        N  0.54170442  0.45193254  0.19428094    -0.79200
C661        C  0.58067698  0.46510761  0.21619259     0.81600
N662        N  0.58003988  0.50190360  0.24812692    -0.80900
C663        C  0.79281331  0.19049732  0.12915258     0.79100
N664        N  0.83324110  0.21225746  0.14293484    -0.79200
C665        C  0.83232258  0.24912241  0.17347763     0.81500
N666        N  0.79219335  0.26430397  0.18875124    -0.79200
C667        C  0.75228008  0.24977336  0.17015116     0.81600
N668        N  0.75150984  0.21210549  0.13943830    -0.80900
C669        C  0.53931612  0.20248242  0.27657446     0.79100
N670        N  0.58196335  0.22320921  0.27224884    -0.79200
C671        C  0.58437021  0.27163655  0.26798440     0.81500
N672        N  0.54584444  0.29731382  0.26785160    -0.79200
C673        C  0.50454025  0.27750594  0.26596132     0.81600
N674        N  0.50106402  0.23011389  0.26927997    -0.80900
C675        C  0.79244019  0.01126386  0.10745396     0.79100
N676        N  0.83116383  0.98377851  0.11145599    -0.79200
C677        C  0.82807148  0.43632948  0.11535905     0.81500
N678        N  0.78674804  0.41644802  0.11695375    -0.79200
C679        C  0.74827893  0.44203582  0.11923177     0.81600
N680        N  0.75032950  0.99038258  0.11479044    -0.80900
C681        C  0.99050391  0.10331292  0.35491473     0.85300
C682        C  0.49466707  0.06330133  0.31924442    -0.54900
C683        C  0.53253385  0.06405799  0.29093500     0.08300
C684        C  0.56357299  0.10865128  0.30025795     0.19200
C685        C  0.53714503  0.10240779  0.38373200    -0.55600
C686        C  0.57549475  0.10504811  0.35485908     0.08400
C687        C  0.49299684  0.14758496  0.32349838    -0.55200
C688        C  0.53127188  0.15304819  0.29631332     0.08900
H689        H  0.96949734  0.03522222  0.31724768     0.13400
H690        H  0.59426321  0.11086138  0.27710762    -0.00800
H691        H  0.53955184  0.09977362  0.42280750     0.13800
H692        H  0.96721896  0.17507831  0.32578935     0.13500
O693        O  0.00355832  0.18697404  0.92558586    -0.75600
O694        O  0.60960323  0.26331343  0.91135207    -0.75600
O695        O  0.59428243  0.18397387  0.95634957    -0.75700
O696        O  0.51846609  0.26617064  0.88002840    -0.75700
O697        O  0.99731127  0.30113710  0.94777034    -0.75600
O698        O  0.57410053  0.21827054  0.02476899    -0.75600
O699        O  0.58896339  0.29868773  0.97900842    -0.75600
O700        O  0.98195536  0.22106279  0.99347213    -0.75700
Ni701      Ni  0.55710183  0.22364848  0.91607049     1.25400
Ni702      Ni  0.53505174  0.26143148  0.98874840     1.25400
C703        C  0.97424393  0.19226818  0.95927488     0.86600
C704        C  0.61763533  0.29267137  0.94479132     0.86500
C705        C  0.59859022  0.18872553  0.00210675     0.86600
C706        C  0.99286803  0.29496236  0.90211619     0.86700
O707        O  0.58979345  0.04880270  0.93919134    -0.75600
O708        O  0.51022845  0.47089661  0.86126134    -0.75600
O709        O  0.49721333  0.04920804  0.90888809    -0.75700
O710        O  0.60356035  0.47100516  0.89092442    -0.75700
O711        O  0.58169098  0.43388295  0.95786418    -0.75600
O712        O  0.97687479  0.01199373  0.97648488    -0.75600
O713        O  0.48972606  0.43477481  0.92942915    -0.75600
O714        O  0.56925143  0.01074246  0.00623304    -0.75700
Ni715      Ni  0.55071395  0.01171124  0.89757842     1.25400
Ni716      Ni  0.52882922  0.47124498  0.96969835     1.25400
C717        C  0.59504287  0.04024825  0.98467962     0.86600
C718        C  0.98468924  0.44165244  0.88388983     0.86500
C719        C  0.96864413  0.04253896  0.94329109     0.86600
C720        C  0.61137177  0.44069028  0.92451742     0.86700
C721        C  0.87448537  0.11545771  0.99289808     0.79100
N722        N  0.89880558  0.15696016  0.98817404    -0.79200
C723        C  0.93619460  0.15829423  0.95888285     0.81500
N724        N  0.94829722  0.11979796  0.93577983    -0.79200
C725        C  0.93233165  0.07789602  0.94789146     0.81600
N726        N  0.89483856  0.07485756  0.97678277    -0.80900
C727        C  0.71059984  0.36295820  0.89143870     0.79100
N728        N  0.68728456  0.40522227  0.89491937    -0.79200
C729        C  0.65051715  0.40728793  0.92549577     0.81500
N730        N  0.63956807  0.36940672  0.95148278    -0.79200
C731        C  0.65435452  0.32711045  0.94011259     0.81600
N732        N  0.69017804  0.32320334  0.90963916    -0.80900
C733        C  0.69589425  0.11049959  0.02462959     0.79100
N734        N  0.67157222  0.07055626  0.01351255    -0.79200
C735        C  0.62426775  0.07172192  0.01299274     0.81500
N736        N  0.60245556  0.11151342  0.02317124    -0.79200
C737        C  0.62497545  0.15214941  0.02707353     0.81600
N738        N  0.67218770  0.15203021  0.02793899    -0.80900
C739        C  0.88849503  0.36223774  0.86786384     0.79100
N740        N  0.91545252  0.32375557  0.87856584    -0.79200
C741        C  0.96207992  0.32611058  0.87484082     0.81500
N742        N  0.98157750  0.36626401  0.86101347    -0.79200
C743        C  0.95739708  0.40635267  0.85901688     0.81600
N744        N  0.91001844  0.40481250  0.86178791    -0.80900
C745        C  0.83214641  0.11224503  0.02619939     0.85300
C746        C  0.83382274  0.06758583  0.05708690    -0.54900
C747        C  0.79853223  0.06108820  0.08825711     0.08300
C748        C  0.76529495  0.10488185  0.08875133     0.19200
C749        C  0.78234886  0.11242598  0.00295167    -0.55600
C750        C  0.74711295  0.10879336  0.03601934     0.08400
C751        C  0.83110427  0.15175705  0.06248522    -0.55200
C752        C  0.79644136  0.14994658  0.09480564     0.08900
H753        H  0.85950643  0.04061037  0.05121732     0.13400
H754        H  0.73754487  0.10191249  0.11558763    -0.00800
H755        H  0.77580172  0.11584514  0.96438846     0.13800
H756        H  0.85561185  0.18053721  0.06171737     0.13500
C757        C  0.78809663  0.31856274  0.79127302     0.85300
C758        C  0.74933273  0.31982433  0.82740852    -0.54900
C759        C  0.75108839  0.35622968  0.85892963     0.08300
C760        C  0.79545979  0.38753666  0.85299182     0.19200
C761        C  0.78745027  0.36875683  0.76761216    -0.55600
C762        C  0.79099405  0.40488004  0.80041107     0.08400
C763        C  0.83204957  0.31721421  0.82239183    -0.55200
C764        C  0.83859703  0.35378241  0.85288422     0.08900
H765        H  0.72098697  0.29500735  0.82652531     0.13400
H766        H  0.79838062  0.41637953  0.87948104    -0.00800
H767        H  0.78389411  0.37494317  0.72892283     0.13800
H768        H  0.85900843  0.29149894  0.81654522     0.13500
O769        O  0.68031908  0.67210671  0.74897900    -0.75600
O770        O  0.60439840  0.56347182  0.73498357    -0.75600
O771        O  0.68302672  0.57951870  0.78126352    -0.75700
O772        O  0.60182389  0.65568270  0.70254818    -0.75700
O773        O  0.63618147  0.63316703  0.63528447    -0.75600
O774        O  0.71686629  0.55723979  0.71361268    -0.75600
O775        O  0.63847991  0.54076100  0.66769319    -0.75600
O776        O  0.71418006  0.64905028  0.68171126    -0.75700
Ni777      Ni  0.64080792  0.61833954  0.74433711     1.25400
Ni778      Ni  0.67790966  0.59438518  0.67228560     1.25400
C779        C  0.70927861  0.67894505  0.71563998     0.86600
C780        C  0.60945459  0.53373126  0.70091180     0.86500
C781        C  0.71221707  0.55421520  0.75940262     0.86600
C782        C  0.60719370  0.65888463  0.65677631     0.86700
O783        O  0.88998410  0.58241740  0.77611955    -0.76000
O784        O  0.96612495  0.65786617  0.69624427    -0.75600
O785        O  0.88972004  0.67440326  0.74259472    -0.75700
O786        O  0.96619006  0.56632414  0.72933490    -0.75700
O787        O  0.92929935  0.54241949  0.66266201    -0.75600
O788        O  0.85267648  0.65084095  0.67583727    -0.75600
O789        O  0.92932338  0.63464867  0.62912455    -0.75600
O790        O  0.85277496  0.55914781  0.70925552    -0.75700
Ni791      Ni  0.92961525  0.62097444  0.73835503     1.25400
Ni792      Ni  0.88936856  0.59608696  0.66686195     1.25400
C793        C  0.86016593  0.55651219  0.75499699     0.86600
C794        C  0.95926994  0.66031050  0.65046183     0.86500
C795        C  0.85894414  0.68089009  0.70962120     0.86600
C796        C  0.95990237  0.53596087  0.69584729     0.86700
C797        C  0.53352059  0.75841189  0.62042595     0.79100
N798        N  0.99284116  0.73433158  0.62161365    -0.79200
C799        C  0.99319260  0.68630832  0.62363196     0.81500
N800        N  0.53339426  0.66338478  0.62460410    -0.79200
C801        C  0.57335313  0.68613933  0.62920900     0.81600
N802        N  0.57390353  0.73417556  0.62746258    -0.80900
C803        C  0.53456654  0.93824840  0.65382571     0.79100
N804        N  0.57530209  0.95969292  0.66696052    -0.79200
C805        C  0.57448855  0.49715028  0.69720930     0.81500
N806        N  0.53444601  0.51251183  0.71306887    -0.79200
C807        C  0.99460881  0.99864166  0.69379071     0.81600
N808        N  0.99392206  0.96107192  0.66363314    -0.80900
C809        C  0.78562334  0.77628003  0.75716885     0.79100
N810        N  0.82573300  0.75493382  0.74321457    -0.79200
C811        C  0.82369193  0.71726995  0.71342091     0.81500
N812        N  0.78294452  0.70179305  0.69831981    -0.79200
C813        C  0.74399865  0.71593595  0.71792930     0.81600
N814        N  0.74457941  0.75347975  0.74820665    -0.80900
C815        C  0.78930775  0.95634547  0.78896013     0.79100
N816        N  0.82914945  0.98123612  0.78392299    -0.79200
C817        C  0.82777175  0.52922239  0.78263422     0.81500
N818        N  0.78743582  0.55142096  0.78615489    -0.79200
C819        C  0.74762082  0.52796657  0.78572490     0.81600
N820        N  0.74814733  0.97989147  0.78684340    -0.80900
C821        C  0.53466796  0.89608126  0.61933715     0.85300
C822        C  0.99345122  0.89702443  0.58474111    -0.54900
C823        C  0.99047267  0.86095294  0.55289366     0.08300
C824        C  0.53375353  0.82767051  0.55623907     0.19200
C825        C  0.53424429  0.84569113  0.64229115    -0.55600
C826        C  0.53386307  0.80990118  0.60896166     0.08400
C827        C  0.57596074  0.89586951  0.58653659    -0.55200
C828        C  0.57765154  0.85994701  0.55435207     0.08900
H829        H  0.96592044  0.92252673  0.58842759     0.13400
H830        H  0.53336329  0.79899979  0.52943704    -0.00800
H831        H  0.53425160  0.83911583  0.68100020     0.13800
H832        H  0.60388914  0.92091319  0.59094549     0.13500
O833        O  0.83123205  0.98961426  0.38887677    -0.75600
O834        O  0.73536144  0.91756240  0.44633613    -0.75600
O835        O  0.73671014  0.99052893  0.38446398    -0.75700
O836        O  0.82878375  0.91638719  0.45030224    -0.75700
O837        O  0.82740762  0.96140683  0.51576779    -0.75600
O838        O  0.73616366  0.53558751  0.44984342    -0.75600
O839        O  0.73373146  0.96321953  0.51131872    -0.75600
O840        O  0.82996954  0.53385211  0.45481428    -0.75700
Ni841      Ni  0.78301830  0.95160157  0.41526674     1.25400
Ni842      Ni  0.78176020  0.00044873  0.48503034     1.25400
C843        C  0.84643424  0.52406953  0.41351753     0.86600
C844        C  0.71925002  0.92798249  0.48765610     0.86500
C845        C  0.72128760  0.52572242  0.40720922     0.86600
C846        C  0.84317556  0.92645162  0.49298275     0.86700
O847        O  0.83234016  0.71406880  0.39606749    -0.75600
O848        O  0.73641398  0.78452167  0.45424278    -0.75600
O849        O  0.83144120  0.78438862  0.45778822    -0.75700
O850        O  0.73780906  0.71479735  0.39179108    -0.75700
O851        O  0.73657425  0.66722412  0.45648259    -0.75600
O852        O  0.83006305  0.73833641  0.52351036    -0.75600
O853        O  0.73448462  0.73790245  0.51950191    -0.75600
O854        O  0.83110188  0.66734123  0.46140252    -0.75700
Ni855      Ni  0.78452407  0.75145919  0.42298632     1.25400
Ni856      Ni  0.78300335  0.70068363  0.49242584     1.25400
C857        C  0.84766014  0.67866099  0.42020964     0.86600
C858        C  0.71914433  0.77327932  0.49523407     0.86500
C859        C  0.84686464  0.77319284  0.50020207     0.86600
C860        C  0.72162019  0.67919650  0.41398105     0.86700
C861        C  0.62454561  0.60420062  0.37247958     0.79100
N862        N  0.64765128  0.64544289  0.38130006    -0.79200
C863        C  0.69442164  0.64433072  0.38814618     0.81500
N864        N  0.71668797  0.60354558  0.38630473    -0.79200
C865        C  0.69472495  0.56266088  0.38298387     0.81600
N866        N  0.64797642  0.56228461  0.37636311    -0.80900
C867        C  0.94432343  0.60171979  0.38192936     0.79100
N868        N  0.92146919  0.64310419  0.39133008    -0.79200
C869        C  0.87495368  0.64260933  0.39753777     0.81500
N870        N  0.85241368  0.60221801  0.39560339    -0.79200
C871        C  0.87386886  0.56116299  0.39228817     0.81600
N872        N  0.92035833  0.56007837  0.38570022    -0.80900
C873        C  0.62284336  0.85356002  0.52917485     0.79100
N874        N  0.64669971  0.89388566  0.51851799    -0.79200
C875        C  0.69254465  0.89190661  0.51086733     0.81500
N876        N  0.71400835  0.85086442  0.51256356    -0.79200
C877        C  0.69166644  0.81036397  0.51698266     0.81600
N878        N  0.64499700  0.81062142  0.52550235    -0.80900
C879        C  0.94338654  0.85379702  0.53006920     0.79100
N880        N  0.91787062  0.89359688  0.52066737    -0.79200
C881        C  0.87136137  0.89135908  0.51741642     0.81500
N882        N  0.85062379  0.85000253  0.52145303    -0.79200
C883        C  0.87422657  0.80969691  0.52382289     0.81600
N884        N  0.92162015  0.81073674  0.52829757    -0.80900
O885        O  0.97168514  0.90259412  0.16542788    -0.75600
O886        O  0.89753347  0.79310161  0.14719973    -0.75600
O887        O  0.89341930  0.88607713  0.11804609    -0.75700
O888        O  0.97586911  0.81010531  0.19432997    -0.75700
O889        O  0.94074995  0.82915803  0.26240264    -0.75600
O890        O  0.85806012  0.90419488  0.18625339    -0.75600
O891        O  0.86292377  0.81229326  0.21539805    -0.75600
O892        O  0.93611453  0.92191663  0.23303241    -0.75700
Ni893      Ni  0.93621751  0.84738159  0.15384524     1.25400
Ni894      Ni  0.89798521  0.86748136  0.22658460     1.25400
C895        C  0.96586235  0.93056051  0.20088921     0.86600
C896        C  0.86805585  0.78454953  0.17971069     0.86500
C897        C  0.86297241  0.90893811  0.14065600     0.86600
C898        C  0.97070506  0.80556957  0.23995310     0.86700
O899        O  0.64927099  0.82246945  0.26499862    -0.75600
O900        O  0.72196753  0.90853783  0.19080113    -0.75600
O901        O  0.64717028  0.91864926  0.24243948    -0.75700
O902        O  0.72372273  0.81307641  0.21326719    -0.75700
O903        O  0.68555812  0.79557600  0.14525120    -0.75600
O904        O  0.60904217  0.90068062  0.17459861    -0.75600
O905        O  0.68341564  0.89144016  0.12285957    -0.75600
O906        O  0.61115546  0.80514346  0.19688264    -0.75700
Ni907      Ni  0.68726439  0.86610961  0.23020098     1.25400
Ni908      Ni  0.64554173  0.84780814  0.15762587     1.25400
C909        C  0.61939002  0.79785725  0.24209424     0.86600
C910        C  0.71362525  0.91575640  0.14559571     0.86500
C911        C  0.61585878  0.92809313  0.21076054     0.86600
C912        C  0.71686303  0.78600798  0.17684145     0.86700
C913        C  0.53827856  0.52364555  0.25645289     0.79100
N914        N  0.49860654  0.00244539  0.23968493    -0.79200
C915        C  0.50088825  0.96660400  0.20800631     0.81500
N916        N  0.54170367  0.95193246  0.19428276    -0.79200
C917        C  0.58067621  0.96510772  0.21619433     0.81600
N918        N  0.58003914  0.00190395  0.24812827    -0.80900
C919        C  0.79281260  0.69049739  0.12915287     0.79100
N920        N  0.83324033  0.71225753  0.14293519    -0.79200
C921        C  0.83232180  0.74912276  0.17347761     0.81500
N922        N  0.79219250  0.76430467  0.18875068    -0.79200
C923        C  0.75227929  0.74977387  0.17015080     0.81600
N924        N  0.75150904  0.71210567  0.13943827    -0.80900
C925        C  0.53931557  0.70248182  0.27657321     0.79100
N926        N  0.58196283  0.72320871  0.27224793    -0.79200
C927        C  0.58436957  0.77163613  0.26798436     0.81500
N928        N  0.54584381  0.79731326  0.26785196    -0.79200
C929        C  0.50453961  0.77750532  0.26596118     0.81600
N930        N  0.50106351  0.73011320  0.26927896    -0.80900
C931        C  0.79244064  0.51126377  0.10745361     0.79100
N932        N  0.83116443  0.48377857  0.11145557    -0.79200
C933        C  0.82807073  0.93632950  0.11536016     0.81500
N934        N  0.78674720  0.91644822  0.11695521    -0.79200
C935        C  0.74827823  0.94203623  0.11923293     0.81600
N936        N  0.75033006  0.49038222  0.11478975    -0.80900
C937        C  0.99050409  0.60331236  0.35491355     0.85300
C938        C  0.49466798  0.56330044  0.31924388    -0.54900
C939        C  0.53253457  0.56405728  0.29093429     0.08300
C940        C  0.56357317  0.60865106  0.30025683     0.19200
C941        C  0.53714523  0.60240818  0.38373093    -0.55600
C942        C  0.57549496  0.60504859  0.35485800     0.08400
C943        C  0.49299632  0.64758404  0.32349652    -0.55200
C944        C  0.53127152  0.65304743  0.29631161     0.08900
H945        H  0.96949805  0.53522046  0.31724745     0.13400
H946        H  0.59426342  0.61086130  0.27710641    -0.00800
H947        H  0.53955201  0.59977421  0.42280639     0.13800
H948        H  0.96721800  0.67507682  0.32578681     0.13500
O949        O  0.00355877  0.68697464  0.92558649    -0.75600
O950        O  0.60960388  0.76331366  0.91135187    -0.75600
O951        O  0.59428276  0.68397445  0.95635005    -0.75700
O952        O  0.51846682  0.76617077  0.88002821    -0.75700
O953        O  0.99731207  0.80113784  0.94776983    -0.75600
O954        O  0.57410103  0.71827153  0.02476928    -0.75600
O955        O  0.58896428  0.79868835  0.97900807    -0.75600
O956        O  0.98195569  0.72106408  0.99347232    -0.75700
Ni957      Ni  0.55710236  0.72364887  0.91607067     1.25400
Ni958      Ni  0.53505244  0.76143240  0.98874825     1.25400
C959        C  0.97424431  0.69226907  0.95927551     0.86600
C960        C  0.61763620  0.79267164  0.94479100     0.86500
C961        C  0.59859049  0.68872619  0.00210722     0.86600
C962        C  0.99286880  0.79496271  0.90211574     0.86700
O963        O  0.58979271  0.54880316  0.93919064    -0.75600
O964        O  0.51022961  0.97089679  0.86126109    -0.75600
O965        O  0.49721253  0.54920844  0.90888760    -0.75700
O966        O  0.60356144  0.97100513  0.89092441    -0.75700
O967        O  0.58169202  0.93388244  0.95786383    -0.75600
O968        O  0.97687406  0.51199455  0.97648469    -0.75600
O969        O  0.48972710  0.93477447  0.92942853    -0.75600
O970        O  0.56925080  0.51074341  0.00623269    -0.75700
Ni971      Ni  0.55071299  0.51171141  0.89757813     1.25400
Ni972      Ni  0.52883008  0.97124428  0.96969820     1.25400
C973        C  0.59504229  0.54024896  0.98467896     0.86600
C974        C  0.98469022  0.94165248  0.88388923     0.86500
C975        C  0.96864341  0.54253965  0.94329076     0.86600
C976        C  0.61137285  0.94068999  0.92451725     0.86700
C977        C  0.87448536  0.61545861  0.99289833     0.79100
N978        N  0.89880588  0.65696097  0.98817494    -0.79200
C979        C  0.93619503  0.65829503  0.95888367     0.81500
N980        N  0.94829732  0.61979892  0.93578036    -0.79200
C981        C  0.93233133  0.57789697  0.94789124     0.81600
N982        N  0.89483804  0.57485856  0.97678243    -0.80900
C983        C  0.71060093  0.86295806  0.89143819     0.79100
N984        N  0.68728572  0.90522216  0.89491902    -0.79200
C985        C  0.65051845  0.90728785  0.92549550     0.81500
N986        N  0.63956960  0.86940667  0.95148280    -0.79200
C987        C  0.65435569  0.82711041  0.94011224     0.81600
N988        N  0.69017897  0.82320320  0.90963851    -0.80900
C989        C  0.69589408  0.61049973  0.02462971     0.79100
N990        N  0.67157193  0.57055667  0.01351191    -0.79200
C991        C  0.62426744  0.57172258  0.01299191     0.81500
N992        N  0.60245539  0.61151399  0.02317099    -0.79200
C993        C  0.62497541  0.65214983  0.02707406     0.81600
N994        N  0.67218765  0.65203039  0.02793976    -0.80900
C995        C  0.88849595  0.86223795  0.86786240     0.79100
N996        N  0.91545338  0.82375578  0.87856452    -0.79200
C997        C  0.96208081  0.82611082  0.87484003     0.81500
N998        N  0.98157849  0.86626421  0.86101271    -0.79200
C999        C  0.95739809  0.90635288  0.85901597     0.81600
N1000       N  0.91001944  0.90481277  0.86178676    -0.80900
C1001       C  0.83214629  0.61224565  0.02619962     0.85300
C1002       C  0.83382305  0.56758634  0.05708704    -0.54900
C1003       C  0.79853243  0.56108832  0.08825713     0.08300
C1004       C  0.76529481  0.60488172  0.08875138     0.19200
C1005       C  0.78234873  0.61242624  0.00295157    -0.55600
C1006       C  0.74711281  0.60879326  0.03601944     0.08400
C1007       C  0.83110381  0.65175757  0.06248546    -0.55200
C1008       C  0.79644085  0.64994670  0.09480587     0.08900
H1009       H  0.85950669  0.54061144  0.05121759     0.13400
H1010       H  0.73754466  0.60191208  0.11558767    -0.00800
H1011       H  0.77580180  0.61584545  0.96438966     0.13800
H1012       H  0.85561109  0.68053781  0.06171774     0.13500
C1013       C  0.78809709  0.81856280  0.79127196     0.85300
C1014       C  0.74933359  0.81982409  0.82740792    -0.54900
C1015       C  0.75108935  0.85622946  0.85892900     0.08300
C1016       C  0.79546058  0.88753659  0.85299083     0.19200
C1017       C  0.78745031  0.86875689  0.76761123    -0.55600
C1018       C  0.79099428  0.90488004  0.80041018     0.08400
C1019       C  0.83205053  0.81721440  0.82239012    -0.55200
C1020       C  0.83859799  0.85378264  0.85288261     0.08900
H1021       H  0.72098801  0.79500705  0.82652496     0.13400
H1022       H  0.79838155  0.91637941  0.87948009    -0.00800
H1023       H  0.78389382  0.87494329  0.72892177     0.13800
H1024       H  0.85900899  0.79149979  0.81654329     0.13500
loop_ 
_geom_bond_atom_site_label_1 
_geom_bond_atom_site_label_2 
_geom_bond_distance 
_geom_bond_site_symmetry_2 
_ccdc_geom_bond_type 
O1           Ni9   1.919       .  S
O1           C11   1.276       .  A
O2           Ni9   1.905       .  S
O2           C12   1.287       .  A
O3           Ni9   1.919       .  S
O3           C13   1.279       .  A
O4           Ni9   1.912       .  S
O4           C14   1.283       .  A
O5          Ni10   1.910       .  S
O5           C14   1.276       .  A
O6          Ni10   1.901       .  S
O6           C13   1.280       .  A
O7          Ni10   1.914       .  S
O7           C12   1.275       .  A
O8          Ni10   1.899       .  S
O8           C11   1.286       .  A
Ni9         Ni10   2.395       .  S
C11          C45   1.460       .  S
C12          C37   1.459   1_545  S
C13          C51   1.448       .  S
C14          C33   1.449       .  S
O15         Ni23   1.910       .  S
O15          C25   1.276       .  A
O16         Ni23   1.900       .  S
O16          C26   1.281       .  A
O17         Ni23   1.916       .  S
O17          C27   1.276       .  A
O18         Ni23   1.904       .  S
O18          C28   1.287       .  A
O19         Ni24   1.922       .  S
O19          C28   1.276       .  A
O20         Ni24   1.908       .  S
O20          C27   1.287       .  A
O21         Ni24   1.916       .  S
O21          C26   1.277       .  A
O22         Ni24   1.907       .  S
O22          C25   1.282       .  A
Ni23        Ni24   2.395       .  S
C25          C49   1.446       .  S
C26          C31   1.446       .  S
C27          C43   1.461       .  S
C28         C295   1.465   1_545  S
C29          N34   1.368       .  A
C29         N542   1.368   1_455  A
C29          C58   1.495       .  S
N30          C31   1.367       .  A
N30         C541   1.368       .  A
C31         N544   1.336       .  A
N32          C33   1.335       .  A
N32         C543   1.336   1_455  A
C33          N34   1.367       .  A
C35          N36   1.377       .  A
C35         N552   1.380   1_455  A
C35          C53   1.544       .  S
N36         C293   1.365       .  A
C37          N38   1.327   1_565  A
C37         N292   1.365       .  A
N38         C807   1.327   1_445  A
C39         C284   1.465       .  S
C39          N40   1.366       .  A
C39         N806   1.327       .  A
N40         C547   1.380       .  A
C41          N42   1.378       .  A
C41          N46   1.378       .  A
C41         C245   1.541       .  S
N42          C43   1.362       .  A
C43          N44   1.325       .  A
N44          C45   1.329       .  A
C45          N46   1.367       .  A
C47          N48   1.367       .  A
C47          N52   1.369       .  A
C47         C250   1.495       .  S
N48         C305   1.366       .  A
C49          N50   1.336       .  A
C49         N304   1.366   1_545  A
N50          C51   1.336       .  A
C51         N308   1.368   1_545  A
N52         C307   1.368       .  A
C53          C59   1.520       .  S
C53          C57   1.561       .  S
C53         C566   1.518   1_455  S
C54         C565   1.518       .  S
C54          H61   1.086       .  S
C54          C55   1.364       .  D
C55         C111   1.510       .  S
C55         C568   1.573       .  S
C56          C60   1.574       .  S
C56          C58   1.539       .  S
C56         C567   1.573   1_455  S
C56          H62   1.111       .  S
C57          H63   1.086       .  S
C57          C58   1.384       .  D
C59          H64   1.087       .  S
C59          C60   1.367       .  D
C60         C105   1.511       .  S
O65         Ni73   1.922       .  S
O65         C331   1.277       .  A
O66         Ni73   1.905       .  S
O66          C76   1.284       .  A
O67         Ni73   1.919       .  S
O67         C333   1.276       .  A
O68         Ni73   1.904       .  S
O68          C78   1.282       .  A
O69         Ni74   1.907       .  S
O69          C78   1.275       .  A
O70        Ni330   1.902       .  S
O70          C77   1.284       .  A
O71         Ni74   1.904       .  S
O71          C76   1.273       .  A
O72        Ni330   1.897       .  S
O72          C75   1.283       .  A
Ni73        Ni74   2.397       .  S
Ni74        O326   1.902       .  S
Ni74        O328   1.897       .  S
C75         O321   1.277   1_545  A
C75         C103   1.450       .  S
C76         C107   1.441       .  S
C77         O323   1.276   1_545  A
C77          C97   1.451       .  S
C78         C113   1.442       .  S
O79         Ni87   1.917       .  S
O79          C89   1.276       .  A
O80         Ni87   1.912       .  S
O80          C90   1.288       .  A
O81         Ni87   1.908       .  S
O81          C91   1.285       .  A
O82         Ni87   1.912       .  S
O82          C92   1.274       .  A
O83         Ni88   1.921       .  S
O83          C92   1.288       .  A
O84         Ni88   1.934       .  S
O84          C91   1.279       .  A
O85         Ni88   1.931       .  S
O85          C90   1.277       .  A
O86         Ni88   1.912       .  S
O86          C89   1.285       .  A
Ni87        Ni88   2.392       .  S
C89         C101   1.453       .  S
C90         C109   1.465       .  S
C91         C115   1.463       .  S
C92          C95   1.456       .  S
C93          N94   1.375       .  A
C93          N98   1.374       .  A
C93         C174   1.496       .  S
N94          C95   1.368       .  A
C95          N96   1.329       .  A
N96          C97   1.331       .  A
C97          N98   1.366       .  A
C99         N100   1.381       .  A
C99         N104   1.379       .  A
C99         C169   1.550       .  S
N100        C101   1.365       .  A
C101        N102   1.325       .  A
N102        C103   1.328       .  A
C103        N104   1.367       .  A
C105        N106   1.374       .  A
C105        N110   1.386       .  A
N106        C107   1.354       .  A
C107        N108   1.322       .  A
N108        C109   1.329       .  A
C109        N110   1.381       .  A
C111        N112   1.371       .  A
C111        N116   1.381       .  A
N112        C113   1.353       .  A
C113        N114   1.328       .  A
N114        C115   1.335       .  A
C115        N116   1.380       .  A
O117       Ni125   1.908       .  S
O117        C127   1.286       .  A
O118       Ni125   1.921       .  S
O118        C128   1.277       .  A
O119       Ni125   1.911       .  S
O119        C129   1.276       .  A
O120       Ni125   1.902       .  S
O120        C130   1.281       .  A
O121       Ni126   1.905       .  S
O121        C130   1.275       .  A
O122       Ni126   1.895       .  S
O122        C129   1.280       .  A
O123       Ni126   1.899       .  S
O123        C128   1.285       .  A
O124       Ni126   1.914       .  S
O124        C127   1.276       .  A
Ni125      Ni126   2.397       .  S
C127        C659   1.459       .  S
C128        C153   1.458       .  S
C129        C165   1.441       .  S
C130        C673   1.440       .  S
O131       Ni139   1.926       .  S
O131        C141   1.280       .  A
O132       Ni139   1.919       .  S
O132        C142   1.284       .  A
O133       Ni139   1.931       .  S
O133        C143   1.276       .  A
O134       Ni139   1.911       .  S
O134        C144   1.290       .  A
O135       Ni140   1.924       .  S
O135        C144   1.275       .  A
O136       Ni140   1.908       .  S
O136        C143   1.290       .  A
O137       Ni140   1.923       .  S
O137        C142   1.279       .  A
O138       Ni140   1.916       .  S
O138        C141   1.284       .  A
Ni139      Ni140   2.390       .  S
C141        C159   1.458       .  S
C142        C167   1.458       .  S
C143        C149   1.477       .  S
C144        C155   1.471       .  S
C145        N402   1.377   1_455  A
C145        N406   1.385       .  A
C145        C171   1.516       .  S
N146        C147   1.357   1_655  A
N146        C401   1.377   1_655  A
C147        C639   1.459   1_455  S
C147        N148   1.321       .  A
N148        C149   1.330       .  A
C149        N150   1.380       .  A
N150        C401   1.385       .  A
C151        N152   1.378       .  A
C151        N156   1.383       .  A
C151        C240   1.511       .  S
N152        C153   1.357       .  A
C153        N154   1.322       .  A
N154        C155   1.328       .  A
C155        N156   1.378       .  A
C157        N158   1.380       .  A
C157        N162   1.370       .  A
C157        C176   1.523       .  S
N158        C159   1.384       .  A
C159        N160   1.335       .  A
N160        C161   1.327       .  A
C161        C642   1.440   1_455  S
C161        N162   1.355       .  A
C163        N164   1.370   1_545  A
C163        N168   1.379   1_545  A
C163        C235   1.520       .  S
N164        C421   1.356       .  A
C165        N166   1.329       .  A
C165        N420   1.356       .  A
N166        C167   1.335       .  A
C167        N424   1.381       .  A
N168        C423   1.381       .  A
C169        C682   1.524       .  S
C169        C687   1.524       .  S
C169        C685   1.558       .  S
C170        C681   1.524       .  S
C170        H689   1.085       .  S
C170        C171   1.364   1_655  D
C171        C172   1.579       .  S
C172        C176   1.573       .  S
C172        C174   1.547       .  S
C172        H178   1.110       .  S
C173        C681   1.558   1_455  S
C173        H179   1.085       .  S
C173        C174   1.386       .  D
C175        C681   1.524       .  S
C175        H692   1.085       .  S
C175        C176   1.364   1_655  D
H177        C682   1.085       .  S
H180        C687   1.085       .  S
O181       Ni701   1.896       .  S
O181        C191   1.287       .  A
O182       Ni189   1.905       .  S
O182        C192   1.274       .  A
O183       Ni189   1.896       .  S
O183        C193   1.280   1_556  A
O184       Ni189   1.906       .  S
O184        C706   1.276   1_455  A
O185       Ni702   1.917       .  S
O185        C194   1.283       .  A
O186       Ni190   1.924   1_554  S
O186        C193   1.280       .  A
O187       Ni190   1.915       .  S
O187        C192   1.288       .  A
O188       Ni702   1.930       .  S
O188        C191   1.278       .  A
Ni189       O693   1.896       .  S
Ni189      Ni190   2.394       .  S
Ni190       O697   1.917   1_455  S
Ni190       O700   1.930   1_455  S
C191        C211   1.470       .  S
C192        C219   1.457       .  S
C193        C225   1.450       .  S
C194        O696   1.276       .  A
C194        C229   1.451       .  S
O195       Ni203   1.927       .  S
O195        C205   1.286       .  A
O196       Ni459   1.932       .  S
O196        C718   1.282   1_455  A
O197       Ni203   1.917   1_655  S
O197        C719   1.289       .  A
O198       Ni459   1.934       .  S
O198        C208   1.277       .  A
O199       Ni204   1.902       .  S
O199        C208   1.290       .  A
O200       Ni972   1.915   1_545  S
O200        C207   1.275       .  A
O201       Ni204   1.896   1_655  S
O201        C718   1.279       .  A
O202       Ni460   1.911   1_544  S
O202        C205   1.277   1_554  A
Ni203       O452   1.932   1_545  S
Ni203       O454   1.934   1_545  S
Ni203      Ni460   2.391   1_545  S
Ni204       O968   1.915   1_455  S
Ni204       O458   1.911   1_556  S
Ni204      Ni459   2.391       .  S
C205        C223   1.460   1_556  S
C206        O708   1.282       .  A
C206        O713   1.279       .  A
C206        C231   1.453       .  S
C207        O709   1.289       .  A
C207        C213   1.465       .  S
C208        C217   1.480       .  S
C209        N210   1.384       .  A
C209        N214   1.380       .  A
C209        C233   1.555   1_556  S
N210        C211   1.369       .  A
C211        N212   1.327       .  A
N212        C213   1.322       .  A
C213        N214   1.367       .  A
C215        N216   1.384       .  A
C215        N220   1.373       .  A
C215        C247   1.510       .  S
N216        C217   1.379       .  A
C217        N218   1.331       .  A
N218        C219   1.321       .  A
C219        N220   1.359       .  A
C221        N222   1.375       .  A
C221        N226   1.372       .  A
C221        C238   1.515       .  S
N222        C223   1.374       .  A
C223        N224   1.333       .  A
N224        C225   1.334       .  A
C225        N226   1.371       .  A
C227        N228   1.370       .  A
C227        N232   1.374       .  A
C227        C252   1.520       .  S
N228        C229   1.362       .  A
C229        N230   1.332       .  A
N230        C231   1.338       .  A
C231        N232   1.380       .  A
C233        C234   1.523       .  S
C233        C239   1.519       .  S
C233        C237   1.571       .  S
C234        H241   1.085       .  S
C234        C235   1.365       .  D
C235        C236   1.575       .  S
C236        C240   1.580       .  S
C236        C238   1.545       .  S
C236        H242   1.111       .  S
C237        H243   1.084   1_554  S
C237        C238   1.391       .  D
C239        H244   1.087       .  S
C239        C240   1.362       .  D
C245        C246   1.523       .  S
C245        C251   1.525       .  S
C245        C249   1.563       .  S
C246        H253   1.086       .  S
C246        C247   1.364       .  D
C247        C248   1.578       .  S
C248        C252   1.577       .  S
C248        C250   1.535       .  S
C248        H254   1.111       .  S
C249        H255   1.087       .  S
C249        C250   1.384       .  D
C251        H256   1.087       .  S
C251        C252   1.360       .  D
O257       Ni265   1.919       .  S
O257        C267   1.276       .  A
O258       Ni265   1.905       .  S
O258        C268   1.287       .  A
O259       Ni265   1.919       .  S
O259        C269   1.279       .  A
O260       Ni265   1.912       .  S
O260        C270   1.283       .  A
O261       Ni266   1.910       .  S
O261        C270   1.276       .  A
O262       Ni266   1.901       .  S
O262        C269   1.280       .  A
O263       Ni266   1.914       .  S
O263        C268   1.275       .  A
O264       Ni266   1.899       .  S
O264        C267   1.286       .  A
Ni265      Ni266   2.395       .  S
C267        C301   1.460       .  S
C268        C293   1.459       .  S
C269        C307   1.448       .  S
C270        C289   1.449       .  S
O271       Ni279   1.910       .  S
O271        C281   1.276       .  A
O272       Ni279   1.900       .  S
O272        C282   1.281       .  A
O273       Ni279   1.916       .  S
O273        C283   1.276       .  A
O274       Ni279   1.904       .  S
O274        C284   1.287       .  A
O275       Ni280   1.922       .  S
O275        C284   1.276       .  A
O276       Ni280   1.908       .  S
O276        C283   1.287       .  A
O277       Ni280   1.916       .  S
O277        C282   1.277       .  A
O278       Ni280   1.907       .  S
O278        C281   1.282       .  A
Ni279      Ni280   2.395       .  S
C281        C305   1.446       .  S
C282        C287   1.446       .  S
C283        C299   1.461       .  S
C285        N798   1.368   1_455  A
C285        N290   1.368       .  A
C285        C314   1.495       .  S
N286        C797   1.368       .  A
N286        C287   1.367       .  A
C287        N800   1.336       .  A
N288        C799   1.336   1_455  A
N288        C289   1.335       .  A
C289        N290   1.367       .  A
C291        N292   1.377       .  A
C291        N808   1.380   1_455  A
C291        C309   1.544       .  S
C293        N294   1.327       .  A
N294        C551   1.327   1_455  A
C295        N550   1.327   1_565  A
C295        N296   1.366       .  A
N296        C803   1.380       .  A
C297        N298   1.378       .  A
C297        N302   1.378       .  A
C297        C501   1.541       .  S
N298        C299   1.362       .  A
C299        N300   1.325       .  A
N300        C301   1.329       .  A
C301        N302   1.367       .  A
C303        N304   1.367       .  A
C303        N308   1.369       .  A
C303        C506   1.495       .  S
C305        N306   1.336       .  A
N306        C307   1.336       .  A
C309        C822   1.518   1_455  S
C309        C315   1.520       .  S
C309        C313   1.561       .  S
C310        C821   1.518       .  S
C310        H317   1.086       .  S
C310        C311   1.364       .  D
C311        C367   1.510       .  S
C311        C824   1.573       .  S
C312        C823   1.573   1_455  S
C312        C316   1.574       .  S
C312        C314   1.539       .  S
C312        H318   1.111       .  S
C313        H319   1.086       .  S
C313        C314   1.384       .  D
C315        H320   1.087       .  S
C315        C316   1.367       .  D
C316        C361   1.511       .  S
O321       Ni329   1.922       .  S
O322       Ni329   1.905       .  S
O322        C332   1.284       .  A
O323       Ni329   1.919       .  S
O324       Ni329   1.904       .  S
O324        C334   1.282       .  A
O325       Ni330   1.907   1_565  S
O325        C334   1.275       .  A
O326        C333   1.284       .  A
O327       Ni330   1.904   1_565  S
O327        C332   1.273       .  A
O328        C331   1.283       .  A
Ni329      Ni330   2.397   1_565  S
C331        C359   1.450       .  S
C332        C363   1.441       .  S
C333        C353   1.451       .  S
C334        C369   1.442       .  S
O335       Ni343   1.917       .  S
O335        C345   1.276       .  A
O336       Ni343   1.912       .  S
O336        C346   1.288       .  A
O337       Ni343   1.908       .  S
O337        C347   1.285       .  A
O338       Ni343   1.912       .  S
O338        C348   1.274       .  A
O339       Ni344   1.921       .  S
O339        C348   1.288       .  A
O340       Ni344   1.934       .  S
O340        C347   1.279       .  A
O341       Ni344   1.931       .  S
O341        C346   1.277       .  A
O342       Ni344   1.912       .  S
O342        C345   1.285       .  A
Ni343      Ni344   2.392       .  S
C345        C357   1.453       .  S
C346        C365   1.465       .  S
C347        C371   1.463       .  S
C348        C351   1.456       .  S
C349        N350   1.375       .  A
C349        N354   1.374       .  A
C349        C430   1.496       .  S
N350        C351   1.368       .  A
C351        N352   1.329       .  A
N352        C353   1.331       .  A
C353        N354   1.366       .  A
C355        N356   1.381       .  A
C355        N360   1.379       .  A
C355        C425   1.550       .  S
N356        C357   1.365       .  A
C357        N358   1.325       .  A
N358        C359   1.328       .  A
C359        N360   1.367       .  A
C361        N362   1.374       .  A
C361        N366   1.386       .  A
N362        C363   1.354       .  A
C363        N364   1.322       .  A
N364        C365   1.329       .  A
C365        N366   1.381       .  A
C367        N368   1.371       .  A
C367        N372   1.381       .  A
N368        C369   1.353       .  A
C369        N370   1.328       .  A
N370        C371   1.335       .  A
C371        N372   1.380       .  A
O373       Ni381   1.908       .  S
O373        C383   1.286       .  A
O374       Ni381   1.921       .  S
O374        C384   1.277       .  A
O375       Ni381   1.911       .  S
O375        C385   1.276       .  A
O376       Ni381   1.902       .  S
O376        C386   1.281       .  A
O377       Ni382   1.905       .  S
O377        C386   1.275       .  A
O378       Ni382   1.895       .  S
O378        C385   1.280       .  A
O379       Ni382   1.899       .  S
O379        C384   1.285       .  A
O380       Ni382   1.914       .  S
O380        C383   1.276       .  A
Ni381      Ni382   2.397       .  S
C383        C915   1.459       .  S
C384        C409   1.458       .  S
C385        C421   1.441       .  S
C386        C929   1.440       .  S
O387       Ni395   1.926       .  S
O387        C397   1.280       .  A
O388       Ni395   1.919       .  S
O388        C398   1.284       .  A
O389       Ni395   1.931       .  S
O389        C399   1.276       .  A
O390       Ni395   1.911       .  S
O390        C400   1.290       .  A
O391       Ni396   1.924       .  S
O391        C400   1.275       .  A
O392       Ni396   1.908       .  S
O392        C399   1.290       .  A
O393       Ni396   1.923       .  S
O393        C398   1.279       .  A
O394       Ni396   1.916       .  S
O394        C397   1.284       .  A
Ni395      Ni396   2.390       .  S
C397        C415   1.458       .  S
C398        C423   1.458       .  S
C399        C405   1.477       .  S
C400        C411   1.471       .  S
C401        C427   1.516       .  S
N402        C403   1.357   1_645  A
C403        C895   1.459   1_455  S
C403        N404   1.321       .  A
N404        C405   1.330       .  A
C405        N406   1.380   1_565  A
C407        N408   1.378       .  A
C407        N412   1.383       .  A
C407        C496   1.511       .  S
N408        C409   1.357       .  A
C409        N410   1.322       .  A
N410        C411   1.328       .  A
C411        N412   1.378       .  A
C413        N414   1.380       .  A
C413        N418   1.370       .  A
C413        C432   1.523       .  S
N414        C415   1.384       .  A
C415        N416   1.335       .  A
N416        C417   1.327       .  A
C417        C898   1.440   1_455  S
C417        N418   1.355       .  A
C419        N420   1.370       .  A
C419        N424   1.379       .  A
C419        C491   1.520       .  S
C421        N422   1.329       .  A
N422        C423   1.335       .  A
C425        C938   1.524       .  S
C425        C943   1.524       .  S
C425        C941   1.558       .  S
C426        C937   1.524       .  S
C426        H945   1.085       .  S
C426        C427   1.364   1_655  D
C427        C428   1.579       .  S
C428        C432   1.573       .  S
C428        C430   1.547       .  S
C428        H434   1.110       .  S
C429        C937   1.558   1_455  S
C429        H435   1.085       .  S
C429        C430   1.386       .  D
C431        C937   1.524       .  S
C431        H948   1.085       .  S
C431        C432   1.364   1_655  D
H433        C938   1.085       .  S
H436        C943   1.085       .  S
O437       Ni957   1.896       .  S
O437        C447   1.287       .  A
O438       Ni445   1.905       .  S
O438        C448   1.274       .  A
O439       Ni445   1.896       .  S
O439        C449   1.280   1_556  A
O440       Ni445   1.906       .  S
O440        C962   1.276   1_455  A
O441       Ni958   1.917       .  S
O441        C450   1.283       .  A
O442       Ni446   1.924   1_554  S
O442        C449   1.280       .  A
O443       Ni446   1.915       .  S
O443        C448   1.288       .  A
O444       Ni958   1.930       .  S
O444        C447   1.278       .  A
Ni445       O949   1.896       .  S
Ni445      Ni446   2.394       .  S
Ni446       O953   1.917   1_455  S
Ni446       O956   1.930   1_455  S
C447        C467   1.470       .  S
C448        C475   1.457       .  S
C449        C481   1.450       .  S
C450        O952   1.276       .  A
C450        C485   1.451       .  S
O451       Ni459   1.927       .  S
O451        C461   1.286       .  A
O452        C974   1.282   1_455  A
O453       Ni459   1.917   1_655  S
O453        C975   1.289       .  A
O454        C464   1.277       .  A
O455       Ni460   1.902       .  S
O455        C464   1.290       .  A
O456       Ni716   1.915       .  S
O456        C463   1.275       .  A
O457       Ni460   1.896   1_655  S
O457        C974   1.279       .  A
O458        C461   1.277   1_554  A
Ni460       O712   1.915   1_465  S
C461        C479   1.460   1_556  S
C462        O964   1.282       .  A
C462        O969   1.279       .  A
C462        C487   1.453       .  S
C463        O965   1.289       .  A
C463        C469   1.465       .  S
C464        C473   1.480       .  S
C465        N466   1.384       .  A
C465        N470   1.380       .  A
C465        C489   1.555   1_556  S
N466        C467   1.369       .  A
C467        N468   1.327       .  A
N468        C469   1.322       .  A
C469        N470   1.367       .  A
C471        N472   1.384       .  A
C471        N476   1.373       .  A
C471        C503   1.510       .  S
N472        C473   1.379       .  A
C473        N474   1.331       .  A
N474        C475   1.321       .  A
C475        N476   1.359       .  A
C477        N478   1.375       .  A
C477        N482   1.372       .  A
C477        C494   1.515       .  S
N478        C479   1.374       .  A
C479        N480   1.333       .  A
N480        C481   1.334       .  A
C481        N482   1.371       .  A
C483        N484   1.370       .  A
C483        N488   1.374       .  A
C483        C508   1.520       .  S
N484        C485   1.362       .  A
C485        N486   1.332       .  A
N486        C487   1.338       .  A
C487        N488   1.380       .  A
C489        C490   1.523       .  S
C489        C495   1.519       .  S
C489        C493   1.571       .  S
C490        H497   1.085       .  S
C490        C491   1.365       .  D
C491        C492   1.575       .  S
C492        C496   1.580       .  S
C492        C494   1.545       .  S
C492        H498   1.111       .  S
C493        H499   1.084   1_554  S
C493        C494   1.391       .  D
C495        H500   1.087       .  S
C495        C496   1.362       .  D
C501        C502   1.523       .  S
C501        C507   1.525       .  S
C501        C505   1.563       .  S
C502        H509   1.086       .  S
C502        C503   1.364       .  D
C503        C504   1.578       .  S
C504        C508   1.577       .  S
C504        C506   1.535       .  S
C504        H510   1.111       .  S
C505        H511   1.087       .  S
C505        C506   1.384       .  D
C507        H512   1.087       .  S
C507        C508   1.360       .  D
O513       Ni521   1.919       .  S
O513        C523   1.276       .  A
O514       Ni521   1.905       .  S
O514        C524   1.287       .  A
O515       Ni521   1.919       .  S
O515        C525   1.279       .  A
O516       Ni521   1.912       .  S
O516        C526   1.283       .  A
O517       Ni522   1.910       .  S
O517        C526   1.276       .  A
O518       Ni522   1.901       .  S
O518        C525   1.280       .  A
O519       Ni522   1.914       .  S
O519        C524   1.275       .  A
O520       Ni522   1.899       .  S
O520        C523   1.286       .  A
Ni521      Ni522   2.395       .  S
C523        C557   1.460       .  S
C524        C549   1.459   1_545  S
C525        C563   1.448       .  S
C526        C545   1.449       .  S
O527       Ni535   1.910       .  S
O527        C537   1.276       .  A
O528       Ni535   1.900       .  S
O528        C538   1.281       .  A
O529       Ni535   1.916       .  S
O529        C539   1.276       .  A
O530       Ni535   1.904       .  S
O530        C540   1.287       .  A
O531       Ni536   1.922       .  S
O531        C540   1.276       .  A
O532       Ni536   1.908       .  S
O532        C539   1.287       .  A
O533       Ni536   1.916       .  S
O533        C538   1.277       .  A
O534       Ni536   1.907       .  S
O534        C537   1.282       .  A
Ni535      Ni536   2.395       .  S
C537        C561   1.446       .  S
C538        C543   1.446       .  S
C539        C555   1.461       .  S
C540        C807   1.465   1_545  S
C541        N546   1.368       .  A
C541        C570   1.495       .  S
N542        C543   1.367       .  A
N544        C545   1.335       .  A
C545        N546   1.367       .  A
C547        N548   1.377       .  A
C547        C565   1.544       .  S
N548        C805   1.365       .  A
C549        N804   1.365       .  A
C549        N550   1.327   1_565  A
C551        C796   1.465       .  S
C551        N552   1.366       .  A
C553        N554   1.378       .  A
C553        N558   1.378       .  A
C553        C757   1.541       .  S
N554        C555   1.362       .  A
C555        N556   1.325       .  A
N556        C557   1.329       .  A
C557        N558   1.367       .  A
C559        N560   1.367       .  A
C559        N564   1.369       .  A
C559        C762   1.495       .  S
N560        C817   1.366       .  A
C561        N816   1.366   1_545  A
C561        N562   1.336       .  A
N562        C563   1.336       .  A
C563        N820   1.368   1_545  A
N564        C819   1.368       .  A
C565        C571   1.520       .  S
C565        C569   1.561       .  S
C566        H573   1.086       .  S
C566        C567   1.364       .  D
C567        C623   1.510       .  S
C568        C572   1.574       .  S
C568        C570   1.539       .  S
C568        H574   1.111       .  S
C569        H575   1.086       .  S
C569        C570   1.384       .  D
C571        H576   1.087       .  S
C571        C572   1.367       .  D
C572        C617   1.511       .  S
O577       Ni585   1.922       .  S
O577        C843   1.277       .  A
O578       Ni585   1.905       .  S
O578        C588   1.284       .  A
O579       Ni585   1.919       .  S
O579        C845   1.276       .  A
O580       Ni585   1.904       .  S
O580        C590   1.282       .  A
O581       Ni586   1.907       .  S
O581        C590   1.275       .  A
O582       Ni842   1.902       .  S
O582        C589   1.284       .  A
O583       Ni586   1.904       .  S
O583        C588   1.273       .  A
O584       Ni842   1.897       .  S
O584        C587   1.283       .  A
Ni585      Ni586   2.397       .  S
Ni586       O838   1.902       .  S
Ni586       O840   1.897       .  S
C587        O833   1.277   1_545  A
C587        C615   1.450       .  S
C588        C619   1.441       .  S
C589        O835   1.276   1_545  A
C589        C609   1.451       .  S
C590        C625   1.442       .  S
O591       Ni599   1.917       .  S
O591        C601   1.276       .  A
O592       Ni599   1.912       .  S
O592        C602   1.288       .  A
O593       Ni599   1.908       .  S
O593        C603   1.285       .  A
O594       Ni599   1.912       .  S
O594        C604   1.274       .  A
O595       Ni600   1.921       .  S
O595        C604   1.288       .  A
O596       Ni600   1.934       .  S
O596        C603   1.279       .  A
O597       Ni600   1.931       .  S
O597        C602   1.277       .  A
O598       Ni600   1.912       .  S
O598        C601   1.285       .  A
Ni599      Ni600   2.392       .  S
C601        C613   1.453       .  S
C602        C621   1.465       .  S
C603        C627   1.463       .  S
C604        C607   1.456       .  S
C605        N606   1.375       .  A
C605        N610   1.374       .  A
C605        C686   1.496       .  S
N606        C607   1.368       .  A
C607        N608   1.329       .  A
N608        C609   1.331       .  A
C609        N610   1.366       .  A
C611        N612   1.381       .  A
C611        N616   1.379       .  A
C611        C681   1.550       .  S
N612        C613   1.365       .  A
C613        N614   1.325       .  A
N614        C615   1.328       .  A
C615        N616   1.367       .  A
C617        N618   1.374       .  A
C617        N622   1.386       .  A
N618        C619   1.354       .  A
C619        N620   1.322       .  A
N620        C621   1.329       .  A
C621        N622   1.381       .  A
C623        N624   1.371       .  A
C623        N628   1.381       .  A
N624        C625   1.353       .  A
C625        N626   1.328       .  A
N626        C627   1.335       .  A
C627        N628   1.380       .  A
O629       Ni637   1.908       .  S
O629        C639   1.286       .  A
O630       Ni637   1.921       .  S
O630        C640   1.277       .  A
O631       Ni637   1.911       .  S
O631        C641   1.276       .  A
O632       Ni637   1.902       .  S
O632        C642   1.281       .  A
O633       Ni638   1.905       .  S
O633        C642   1.275       .  A
O634       Ni638   1.895       .  S
O634        C641   1.280       .  A
O635       Ni638   1.899       .  S
O635        C640   1.285       .  A
O636       Ni638   1.914       .  S
O636        C639   1.276       .  A
Ni637      Ni638   2.397       .  S
C640        C665   1.458       .  S
C641        C677   1.441       .  S
O643       Ni651   1.926       .  S
O643        C653   1.280       .  A
O644       Ni651   1.919       .  S
O644        C654   1.284       .  A
O645       Ni651   1.931       .  S
O645        C655   1.276       .  A
O646       Ni651   1.911       .  S
O646        C656   1.290       .  A
O647       Ni652   1.924       .  S
O647        C656   1.275       .  A
O648       Ni652   1.908       .  S
O648        C655   1.290       .  A
O649       Ni652   1.923       .  S
O649        C654   1.279       .  A
O650       Ni652   1.916       .  S
O650        C653   1.284       .  A
Ni651      Ni652   2.390       .  S
C653        C671   1.458       .  S
C654        C679   1.458       .  S
C655        C661   1.477       .  S
C656        C667   1.471       .  S
C657        N914   1.377       .  A
C657        N918   1.385       .  A
C657        C683   1.516       .  S
N658        C913   1.377       .  A
N658        C659   1.357       .  A
C659        N660   1.321       .  A
N660        C661   1.330       .  A
C661        N662   1.380       .  A
N662        C913   1.385       .  A
C663        N664   1.378       .  A
C663        N668   1.383       .  A
C663        C752   1.511       .  S
N664        C665   1.357       .  A
C665        N666   1.322       .  A
N666        C667   1.328       .  A
C667        N668   1.378       .  A
C669        N670   1.380       .  A
C669        N674   1.370       .  A
C669        C688   1.523       .  S
N670        C671   1.384       .  A
C671        N672   1.335       .  A
N672        C673   1.327       .  A
C673        N674   1.355       .  A
C675        N676   1.370   1_545  A
C675        N680   1.379   1_545  A
C675        C747   1.520       .  S
N676        C933   1.356       .  A
C677        N932   1.356       .  A
C677        N678   1.329       .  A
N678        C679   1.335       .  A
C679        N936   1.381       .  A
N680        C935   1.381       .  A
C682        C683   1.364       .  D
C683        C684   1.579       .  S
C684        C688   1.573       .  S
C684        C686   1.547       .  S
C684        H690   1.110       .  S
C685        H691   1.085       .  S
C685        C686   1.386       .  D
C687        C688   1.364       .  D
O693        C703   1.287   1_455  A
O694       Ni701   1.905       .  S
O694        C704   1.274       .  A
O695       Ni701   1.896       .  S
O695        C705   1.280   1_556  A
O696       Ni701   1.906       .  S
O697        C706   1.283       .  A
O698       Ni702   1.924   1_554  S
O698        C705   1.280       .  A
O699       Ni702   1.915       .  S
O699        C704   1.288       .  A
O700        C703   1.278       .  A
Ni701      Ni702   2.394       .  S
C703        C723   1.470       .  S
C704        C731   1.457       .  S
C705        C737   1.450       .  S
C706        C741   1.451       .  S
O707       Ni715   1.927       .  S
O707        C717   1.286       .  A
O708       Ni971   1.932       .  S
O709       Ni715   1.917       .  S
O710       Ni971   1.934       .  S
O710        C720   1.277       .  A
O711       Ni716   1.902       .  S
O711        C720   1.290       .  A
O712        C719   1.275       .  A
O713       Ni716   1.896       .  S
O714       Ni972   1.911   1_544  S
O714        C717   1.277   1_554  A
Ni715       O964   1.932   1_545  S
Ni715       O966   1.934   1_545  S
Ni715      Ni972   2.391   1_545  S
Ni716       O970   1.911   1_556  S
Ni716      Ni971   2.391       .  S
C717        C735   1.460   1_556  S
C718        C743   1.453       .  S
C719        C725   1.465       .  S
C720        C729   1.480       .  S
C721        N722   1.384       .  A
C721        N726   1.380       .  A
C721        C745   1.555   1_556  S
N722        C723   1.369       .  A
C723        N724   1.327       .  A
N724        C725   1.322       .  A
C725        N726   1.367       .  A
C727        N728   1.384       .  A
C727        N732   1.373       .  A
C727        C759   1.510       .  S
N728        C729   1.379       .  A
C729        N730   1.331       .  A
N730        C731   1.321       .  A
C731        N732   1.359       .  A
C733        N734   1.375       .  A
C733        N738   1.372       .  A
C733        C750   1.515       .  S
N734        C735   1.374       .  A
C735        N736   1.333       .  A
N736        C737   1.334       .  A
C737        N738   1.371       .  A
C739        N740   1.370       .  A
C739        N744   1.374       .  A
C739        C764   1.520       .  S
N740        C741   1.362       .  A
C741        N742   1.332       .  A
N742        C743   1.338       .  A
C743        N744   1.380       .  A
C745        C746   1.523       .  S
C745        C751   1.519       .  S
C745        C749   1.571       .  S
C746        H753   1.085       .  S
C746        C747   1.365       .  D
C747        C748   1.575       .  S
C748        C752   1.580       .  S
C748        C750   1.545       .  S
C748        H754   1.111       .  S
C749        H755   1.084   1_554  S
C749        C750   1.391       .  D
C751        H756   1.087       .  S
C751        C752   1.362       .  D
C757        C758   1.523       .  S
C757        C763   1.525       .  S
C757        C761   1.563       .  S
C758        H765   1.086       .  S
C758        C759   1.364       .  D
C759        C760   1.578       .  S
C760        C764   1.577       .  S
C760        C762   1.535       .  S
C760        H766   1.111       .  S
C761        H767   1.087       .  S
C761        C762   1.384       .  D
C763        H768   1.087       .  S
C763        C764   1.360       .  D
O769       Ni777   1.919       .  S
O769        C779   1.276       .  A
O770       Ni777   1.905       .  S
O770        C780   1.287       .  A
O771       Ni777   1.919       .  S
O771        C781   1.279       .  A
O772       Ni777   1.912       .  S
O772        C782   1.283       .  A
O773       Ni778   1.910       .  S
O773        C782   1.276       .  A
O774       Ni778   1.901       .  S
O774        C781   1.280       .  A
O775       Ni778   1.914       .  S
O775        C780   1.275       .  A
O776       Ni778   1.899       .  S
O776        C779   1.286       .  A
Ni777      Ni778   2.395       .  S
C779        C813   1.460       .  S
C780        C805   1.459       .  S
C781        C819   1.448       .  S
C782        C801   1.449       .  S
O783       Ni791   1.910       .  S
O783        C793   1.276       .  A
O784       Ni791   1.900       .  S
O784        C794   1.281       .  A
O785       Ni791   1.916       .  S
O785        C795   1.276       .  A
O786       Ni791   1.904       .  S
O786        C796   1.287       .  A
O787       Ni792   1.922       .  S
O787        C796   1.276       .  A
O788       Ni792   1.908       .  S
O788        C795   1.287       .  A
O789       Ni792   1.916       .  S
O789        C794   1.277       .  A
O790       Ni792   1.907       .  S
O790        C793   1.282       .  A
Ni791      Ni792   2.395       .  S
C793        C817   1.446       .  S
C794        C799   1.446       .  S
C795        C811   1.461       .  S
C797        N802   1.368       .  A
C797        C826   1.495       .  S
N798        C799   1.367       .  A
N800        C801   1.335       .  A
C801        N802   1.367       .  A
C803        N804   1.377       .  A
C803        C821   1.544       .  S
C805        N806   1.327       .  A
C807        N808   1.366       .  A
C809        N810   1.378       .  A
C809        N814   1.378       .  A
C809       C1013   1.541       .  S
N810        C811   1.362       .  A
C811        N812   1.325       .  A
N812        C813   1.329       .  A
C813        N814   1.367       .  A
C815        N816   1.367       .  A
C815        N820   1.369       .  A
C815       C1018   1.495       .  S
C817        N818   1.336       .  A
N818        C819   1.336       .  A
C821        C827   1.520       .  S
C821        C825   1.561       .  S
C822        H829   1.086       .  S
C822        C823   1.364       .  D
C823        C879   1.510       .  S
C824        C828   1.574       .  S
C824        C826   1.539       .  S
C824        H830   1.111       .  S
C825        H831   1.086       .  S
C825        C826   1.384       .  D
C827        H832   1.087       .  S
C827        C828   1.367       .  D
C828        C873   1.511       .  S
O833       Ni841   1.922       .  S
O834       Ni841   1.905       .  S
O834        C844   1.284       .  A
O835       Ni841   1.919       .  S
O836       Ni841   1.904       .  S
O836        C846   1.282       .  A
O837       Ni842   1.907   1_565  S
O837        C846   1.275       .  A
O838        C845   1.284       .  A
O839       Ni842   1.904   1_565  S
O839        C844   1.273       .  A
O840        C843   1.283       .  A
Ni841      Ni842   2.397   1_565  S
C843        C871   1.450       .  S
C844        C875   1.441       .  S
C845        C865   1.451       .  S
C846        C881   1.442       .  S
O847       Ni855   1.917       .  S
O847        C857   1.276       .  A
O848       Ni855   1.912       .  S
O848        C858   1.288       .  A
O849       Ni855   1.908       .  S
O849        C859   1.285       .  A
O850       Ni855   1.912       .  S
O850        C860   1.274       .  A
O851       Ni856   1.921       .  S
O851        C860   1.288       .  A
O852       Ni856   1.934       .  S
O852        C859   1.279       .  A
O853       Ni856   1.931       .  S
O853        C858   1.277       .  A
O854       Ni856   1.912       .  S
O854        C857   1.285       .  A
Ni855      Ni856   2.392       .  S
C857        C869   1.453       .  S
C858        C877   1.465       .  S
C859        C883   1.463       .  S
C860        C863   1.456       .  S
C861        N862   1.375       .  A
C861        N866   1.374       .  A
C861        C942   1.496       .  S
N862        C863   1.368       .  A
C863        N864   1.329       .  A
N864        C865   1.331       .  A
C865        N866   1.366       .  A
C867        N868   1.381       .  A
C867        N872   1.379       .  A
C867        C937   1.550       .  S
N868        C869   1.365       .  A
C869        N870   1.325       .  A
N870        C871   1.328       .  A
C871        N872   1.367       .  A
C873        N874   1.374       .  A
C873        N878   1.386       .  A
N874        C875   1.354       .  A
C875        N876   1.322       .  A
N876        C877   1.329       .  A
C877        N878   1.381       .  A
C879        N880   1.371       .  A
C879        N884   1.381       .  A
N880        C881   1.353       .  A
C881        N882   1.328       .  A
N882        C883   1.335       .  A
C883        N884   1.380       .  A
O885       Ni893   1.908       .  S
O885        C895   1.286       .  A
O886       Ni893   1.921       .  S
O886        C896   1.277       .  A
O887       Ni893   1.911       .  S
O887        C897   1.276       .  A
O888       Ni893   1.902       .  S
O888        C898   1.281       .  A
O889       Ni894   1.905       .  S
O889        C898   1.275       .  A
O890       Ni894   1.895       .  S
O890        C897   1.280       .  A
O891       Ni894   1.899       .  S
O891        C896   1.285       .  A
O892       Ni894   1.914       .  S
O892        C895   1.276       .  A
Ni893      Ni894   2.397       .  S
C896        C921   1.458       .  S
C897        C933   1.441       .  S
O899       Ni907   1.926       .  S
O899        C909   1.280       .  A
O900       Ni907   1.919       .  S
O900        C910   1.284       .  A
O901       Ni907   1.931       .  S
O901        C911   1.276       .  A
O902       Ni907   1.911       .  S
O902        C912   1.290       .  A
O903       Ni908   1.924       .  S
O903        C912   1.275       .  A
O904       Ni908   1.908       .  S
O904        C911   1.290       .  A
O905       Ni908   1.923       .  S
O905        C910   1.279       .  A
O906       Ni908   1.916       .  S
O906        C909   1.284       .  A
Ni907      Ni908   2.390       .  S
C909        C927   1.458       .  S
C910        C935   1.458       .  S
C911        C917   1.477       .  S
C912        C923   1.471       .  S
C913        C939   1.516       .  S
N914        C915   1.357   1_545  A
C915        N916   1.321       .  A
N916        C917   1.330       .  A
C917        N918   1.380   1_565  A
C919        N920   1.378       .  A
C919        N924   1.383       .  A
C919       C1008   1.511       .  S
N920        C921   1.357       .  A
C921        N922   1.322       .  A
N922        C923   1.328       .  A
C923        N924   1.378       .  A
C925        N926   1.380       .  A
C925        N930   1.370       .  A
C925        C944   1.523       .  S
N926        C927   1.384       .  A
C927        N928   1.335       .  A
N928        C929   1.327       .  A
C929        N930   1.355       .  A
C931        N932   1.370       .  A
C931        N936   1.379       .  A
C931       C1003   1.520       .  S
C933        N934   1.329       .  A
N934        C935   1.335       .  A
C938        C939   1.364       .  D
C939        C940   1.579       .  S
C940        C944   1.573       .  S
C940        C942   1.547       .  S
C940        H946   1.110       .  S
C941        H947   1.085       .  S
C941        C942   1.386       .  D
C943        C944   1.364       .  D
O949        C959   1.287   1_455  A
O950       Ni957   1.905       .  S
O950        C960   1.274       .  A
O951       Ni957   1.896       .  S
O951        C961   1.280   1_556  A
O952       Ni957   1.906       .  S
O953        C962   1.283       .  A
O954       Ni958   1.924   1_554  S
O954        C961   1.280       .  A
O955       Ni958   1.915       .  S
O955        C960   1.288       .  A
O956        C959   1.278       .  A
Ni957      Ni958   2.394       .  S
C959        C979   1.470       .  S
C960        C987   1.457       .  S
C961        C993   1.450       .  S
C962        C997   1.451       .  S
O963       Ni971   1.927       .  S
O963        C973   1.286       .  A
O965       Ni971   1.917       .  S
O966        C976   1.277       .  A
O967       Ni972   1.902       .  S
O967        C976   1.290       .  A
O968        C975   1.275       .  A
O969       Ni972   1.896       .  S
O970        C973   1.277   1_554  A
C973        C991   1.460   1_556  S
C974        C999   1.453       .  S
C975        C981   1.465       .  S
C976        C985   1.480       .  S
C977        N978   1.384       .  A
C977        N982   1.380       .  A
C977       C1001   1.555   1_556  S
N978        C979   1.369       .  A
C979        N980   1.327       .  A
N980        C981   1.322       .  A
C981        N982   1.367       .  A
C983        N984   1.384       .  A
C983        N988   1.373       .  A
C983       C1015   1.510       .  S
N984        C985   1.379       .  A
C985        N986   1.331       .  A
N986        C987   1.321       .  A
C987        N988   1.359       .  A
C989        N990   1.375       .  A
C989        N994   1.372       .  A
C989       C1006   1.515       .  S
N990        C991   1.374       .  A
C991        N992   1.333       .  A
N992        C993   1.334       .  A
C993        N994   1.371       .  A
C995        N996   1.370       .  A
C995       N1000   1.374       .  A
C995       C1020   1.520       .  S
N996        C997   1.362       .  A
C997        N998   1.332       .  A
N998        C999   1.338       .  A
C999       N1000   1.380       .  A
C1001      C1002   1.523       .  S
C1001      C1007   1.519       .  S
C1001      C1005   1.571       .  S
C1002      H1009   1.085       .  S
C1002      C1003   1.365       .  D
C1003      C1004   1.575       .  S
C1004      C1008   1.580       .  S
C1004      C1006   1.545       .  S
C1004      H1010   1.111       .  S
C1005      H1011   1.084   1_554  S
C1005      C1006   1.391       .  D
C1007      H1012   1.087       .  S
C1007      C1008   1.362       .  D
C1013      C1014   1.523       .  S
C1013      C1019   1.525       .  S
C1013      C1017   1.563       .  S
C1014      H1021   1.086       .  S
C1014      C1015   1.364       .  D
C1015      C1016   1.578       .  S
C1016      C1020   1.577       .  S
C1016      C1018   1.535       .  S
C1016      H1022   1.111       .  S
C1017      H1023   1.087       .  S
C1017      C1018   1.384       .  D
C1019      H1024   1.087       .  S
C1019      C1020   1.360       .  D
