geometry optimzed in LAMMPS
_audit_creation_date              2020-12-01 
_audit_creation_method            'lammps2cif' 
_symmetry_space_group_name_H-M    'P1' 
_symmetry_Int_Tables_number       1 
_symmetry_cell_setting            triclinic 
loop_ 
_symmetry_equiv_pos_as_xyz 
  x,y,z 
_cell_length_a                    50.95850962 
_cell_length_b                    50.90751357241264 
_cell_length_c                    50.92325768679319 
_cell_angle_alpha                 89.97000616303909 
_cell_angle_beta                  89.98973349386743 
_cell_angle_gamma                 90.02054379724048 
loop_ 
_atom_site_label 
_atom_site_type_symbol 
_atom_site_fract_x 
_atom_site_fract_y 
_atom_site_fract_z 
_atom_site_charge 
N1          N  0.19226196  0.77455052  0.45900930    -0.26900
N2          N  0.18317368  0.79461825  0.44530398    -0.34700
C3          C  0.18925954  0.79086199  0.41976300     0.01500
C4          C  0.20266458  0.76721685  0.41751018     0.07500
C5          C  0.20409021  0.75747863  0.44280233    -0.05600
H6          H  0.18471286  0.80449782  0.40411243     0.08200
H7          H  0.21404340  0.73984613  0.44922854     0.09400
Cu8        Cu  0.16347117  0.82572688  0.46351181     0.44200
Cu9        Cu  0.19169800  0.77279283  0.49945355     0.42000
Cu10       Cu  0.16400832  0.82544644  0.53663249     0.43900
N11         N  0.14220759  0.85157809  0.48736058    -0.34300
N12         N  0.14207714  0.85122907  0.51339432    -0.28500
C13         C  0.12559436  0.86999725  0.52211730    -0.04600
C14         C  0.11489428  0.88281296  0.50065903     0.07600
C15         C  0.12585237  0.87061214  0.47898740     0.01400
H16         H  0.12164598  0.87397070  0.54260908     0.09100
H17         H  0.12202163  0.87506807  0.45856512     0.08100
N18         N  0.18772762  0.79649190  0.55342458    -0.35700
N19         N  0.19716435  0.77683524  0.53937200    -0.27900
C20         C  0.21185142  0.76129983  0.55477251    -0.03100
C21         C  0.21181820  0.77157910  0.57987280     0.05500
C22         C  0.19635972  0.79397166  0.57836431     0.03600
H23         H  0.22215618  0.74402010  0.54798802     0.08700
H24         H  0.19175122  0.80739884  0.59418133     0.07500
N25         N  0.90571921  0.08963885  0.45958527    -0.26900
N26         N  0.92462368  0.07806714  0.44612742    -0.34700
C27         C  0.92123681  0.08333015  0.42037882     0.01500
C28         C  0.89905796  0.09889714  0.41778675     0.07500
C29         C  0.88977492  0.10240328  0.44298043    -0.05600
H30         H  0.93397805  0.07646644  0.40484059     0.08200
H31         H  0.87293271  0.11390416  0.44891880     0.09400
Cu32       Cu  0.95344490  0.05578351  0.46453891     0.44200
Cu33       Cu  0.90315841  0.08943021  0.49999240     0.42000
Cu34       Cu  0.95105394  0.05445607  0.53747521     0.43900
N35         N  0.97720042  0.03252661  0.48828376    -0.34300
N36         N  0.97632482  0.03183691  0.51428708    -0.28500
C37         C  0.99358067  0.01372577  0.52289477    -0.04600
C38         C  0.00577476  0.00248646  0.50135550     0.07600
C39         C  0.99495400  0.01490710  0.47978625     0.01400
H40         H  0.99668371  0.00878668  0.54332697     0.09100
H41         H  0.99929060  0.01108506  0.45934132     0.08100
N42         N  0.92278375  0.07880223  0.55463887    -0.35700
N43         N  0.90518649  0.09146152  0.54038846    -0.27900
C44         C  0.88996529  0.10607449  0.55619294    -0.03100
C45         C  0.89819915  0.10249491  0.58175290     0.05500
C46         C  0.91906794  0.08501481  0.58013766     0.03600
H47         H  0.87415307  0.11856469  0.54949652     0.08700
H48         H  0.93081339  0.07759461  0.59619807     0.07500
N49         N  0.89340273  0.80963511  0.45693765    -0.26900
N50         N  0.91355623  0.81849824  0.44322305    -0.34700
C51         C  0.91080945  0.81049002  0.41806516     0.01500
C52         C  0.88772107  0.79609084  0.41612431     0.07500
C53         C  0.87728915  0.79608886  0.44114804    -0.05600
H54         H  0.92473872  0.81442625  0.40251879     0.08200
H55         H  0.85983917  0.78595676  0.44777244     0.09400
Cu56       Cu  0.94357211  0.84007948  0.46119353     0.44200
Cu57       Cu  0.89014871  0.81252566  0.49713913     0.42000
Cu58       Cu  0.94232636  0.83967492  0.53457820     0.43900
N59         N  0.96916553  0.86131440  0.48542797    -0.34300
N60         N  0.96866746  0.86116948  0.51146791    -0.28500
C61         C  0.98749743  0.87743126  0.52046695    -0.04600
C62         C  0.00047484  0.88835409  0.49922107     0.07600
C63         C  0.98833287  0.87769813  0.47734870     0.01400
H64         H  0.99129699  0.88121115  0.54102083     0.09100
H65         H  0.99292980  0.88174452  0.45699845     0.08100
N66         N  0.91236747  0.81727580  0.55152105    -0.35700
N67         N  0.89270397  0.80819997  0.53727244    -0.27900
C68         C  0.87669610  0.79383959  0.55250315    -0.03100
C69         C  0.88669823  0.79364186  0.57771136     0.05500
C70         C  0.90938322  0.80871705  0.57645201     0.03600
H71         H  0.85958818  0.78345538  0.54541425     0.08700
H72         H  0.92293910  0.81269846  0.59230624     0.07500
N73         N  0.51578996  0.78123491  0.14400827    -0.26900
N74         N  0.50198193  0.80064762  0.13372518    -0.34700
C75         C  0.47674972  0.79797700  0.14131559     0.01500
C76         C  0.47487841  0.77578576  0.15706352     0.07500
C77         C  0.49995181  0.76571556  0.15824037    -0.05600
H78         H  0.46109084  0.81130347  0.13602506     0.08200
H79         H  0.50640841  0.74872668  0.16924937     0.09400
Cu80       Cu  0.51936344  0.82957109  0.11040037     0.44200
Cu81       Cu  0.55589584  0.77779206  0.14077208     0.42000
Cu82       Cu  0.59223863  0.82954649  0.11109112     0.43900
N83         N  0.54308296  0.85364454  0.08709027    -0.34300
N84         N  0.56908777  0.85361478  0.08746353    -0.28500
C85         C  0.57797673  0.87091931  0.06955268    -0.04600
C86         C  0.55666524  0.88239001  0.05729505     0.07600
C87         C  0.53486499  0.87102092  0.06890222     0.01400
H88         H  0.59849943  0.87475355  0.06565799     0.09100
H89         H  0.51450511  0.87499186  0.06438637     0.08100
N90         N  0.60992262  0.79998265  0.13313502    -0.35700
N91         N  0.59615396  0.78024125  0.14281285    -0.27900
C92         C  0.61217118  0.76388952  0.15581993    -0.03100
C93         C  0.63734581  0.77383966  0.15453913     0.05500
C94         C  0.63528643  0.79681543  0.14004099     0.03600
H95         H  0.60571739  0.74653735  0.16626076     0.08700
H96         H  0.65096765  0.81023920  0.13501536     0.07500
N97         N  0.91653234  0.40206764  0.16451560    -0.26900
N98         N  0.92518691  0.38816924  0.14439672    -0.34700
C99         C  0.91672581  0.36318792  0.14714014     0.01500
C100        C  0.90216834  0.36154071  0.17012148     0.07500
C101        C  0.90253864  0.38655211  0.18056410    -0.05600
H102        H  0.92062000  0.34750826  0.13334613     0.08200
H103        H  0.89271356  0.39327783  0.19813981     0.09400
Cu104      Cu  0.94746078  0.40525491  0.11444818     0.44200
Cu105      Cu  0.92124170  0.44203979  0.16820847     0.42000
Cu106      Cu  0.94960184  0.47833940  0.11582607     0.43900
N107        N  0.96973011  0.42868502  0.08908189    -0.34300
N108        N  0.97040307  0.45471079  0.08963265    -0.28500
C109        C  0.98731955  0.46327444  0.07121089    -0.04600
C110        C  0.99784265  0.44173972  0.05846005     0.07600
C111        C  0.98625862  0.42014464  0.07026961     0.01400
H112        H  0.99193447  0.48372029  0.06766034     0.09100
H113        H  0.98986568  0.39968976  0.06579422     0.08100
N114        N  0.92864511  0.49616852  0.14611238    -0.35700
N115        N  0.91926733  0.48234618  0.16595761    -0.27900
C116        C  0.90603927  0.49824681  0.18224151    -0.03100
C117        C  0.90688623  0.52342508  0.17216879     0.05500
C118        C  0.92139949  0.52147426  0.14920159     0.03600
H119        H  0.89555547  0.49164614  0.19949232     0.08700
H120        H  0.92583675  0.53711246  0.13550569     0.07500
N121        N  0.90913374  0.48302273  0.84344890    -0.26900
N122        N  0.92034002  0.49668608  0.86245232    -0.34700
C123        C  0.91363148  0.52217752  0.85974030     0.01500
C124        C  0.89762067  0.52439717  0.83784922     0.07500
C125        C  0.89529322  0.49927640  0.82804446    -0.05600
H126        H  0.92011601  0.53784383  0.87252888     0.08200
H127        H  0.88399280  0.49314037  0.81114208     0.09400
Cu128      Cu  0.94442732  0.47916169  0.89038463     0.44200
Cu129      Cu  0.91116325  0.44271998  0.83985605     0.42000
Cu130      Cu  0.94604261  0.40650291  0.88837969     0.43900
N131        N  0.96808988  0.45570578  0.91404547    -0.34300
N132        N  0.96873618  0.42970354  0.91325716    -0.28500
C133        C  0.98638362  0.42102856  0.93090282    -0.04600
C134        C  0.99733684  0.44252474  0.94335926     0.07600
C135        C  0.98532092  0.46416733  0.93219628     0.01400
H136        H  0.99095252  0.40055373  0.93433296     0.09100
H137        H  0.98889589  0.48459470  0.93683427     0.08100
N138        N  0.92181236  0.38862942  0.86074792    -0.35700
N139        N  0.90974336  0.40228811  0.84229177    -0.27900
C140        C  0.89554598  0.38594867  0.82724486    -0.03100
C141        C  0.89857492  0.36074615  0.83677296     0.05500
C142        C  0.91536171  0.36307656  0.85807683     0.03600
H143        H  0.88338301  0.39208157  0.81095172     0.08700
H144        H  0.92233633  0.34745232  0.87067052     0.07500
N145        N  0.51744968  0.08536036  0.84335843    -0.26900
N146        N  0.50370809  0.07554547  0.86306371    -0.34700
C147        C  0.47859015  0.08374185  0.86073467     0.01500
C148        C  0.47673418  0.09934093  0.83840381     0.07500
C149        C  0.50170586  0.09983040  0.82798776    -0.05600
H150        H  0.46295336  0.07874037  0.87420390     0.08200
H151        H  0.50812017  0.11032372  0.81066176     0.09400
Cu152      Cu  0.52128879  0.05161060  0.89145551     0.44200
Cu153      Cu  0.55737134  0.08053283  0.83879057     0.42000
Cu154      Cu  0.59442032  0.04873744  0.88872007     0.43900
N155        N  0.54504754  0.02806318  0.91535204    -0.34300
N156        N  0.57104065  0.02731652  0.91453027    -0.28500
C157        C  0.57970729  0.00955687  0.93210663    -0.04600
C158        C  0.55825150  0.99850697  0.94451207     0.07600
C159        C  0.53663213  0.01069235  0.93344554     0.01400
H160        H  0.60013588  0.00467807  0.93521868     0.09100
H161        H  0.51621792  0.00696107  0.93796693     0.08100
N162        N  0.61191775  0.06955642  0.85822614    -0.35700
N163        N  0.59784252  0.08035746  0.83931668    -0.27900
C164        C  0.61384237  0.09298345  0.82261235    -0.03100
C165        C  0.63933149  0.09020670  0.83145535     0.05500
C166        C  0.63745051  0.07519760  0.85410118     0.03600
H167        H  0.60720166  0.10431000  0.80591194     0.08700
H168        H  0.65333900  0.06934728  0.86691729     0.07500
N169        N  0.21354447  0.40307911  0.85680005    -0.26900
N170        N  0.19408048  0.38921368  0.86691192    -0.34700
C171        C  0.19692751  0.36391706  0.85947803     0.01500
C172        C  0.21931999  0.36205846  0.84404155     0.07500
C173        C  0.22927800  0.38721500  0.84286390    -0.05600
H174        H  0.18372366  0.34816956  0.86484623     0.08200
H175        H  0.24646873  0.39367249  0.83219689     0.09400
Cu176      Cu  0.16511987  0.40663374  0.89011896     0.44200
Cu177      Cu  0.21700970  0.44328209  0.86008707     0.42000
Cu178      Cu  0.16665540  0.47978084  0.89193884     0.43900
N179        N  0.14075142  0.43006893  0.91336593    -0.34300
N180        N  0.14127898  0.45610032  0.91403289    -0.28500
C181        C  0.12350922  0.46452539  0.93173078    -0.04600
C182        C  0.11128164  0.44288051  0.94276696     0.07600
C183        C  0.12267483  0.42139990  0.93063519     0.01400
H184        H  0.12000826  0.48494128  0.93647787     0.09100
H185        H  0.11838167  0.40091295  0.93432032     0.08100
N186        N  0.19585322  0.49760800  0.86912327    -0.35700
N187        N  0.21477814  0.48367357  0.85816371    -0.27900
C188        C  0.23063745  0.49965819  0.84444207    -0.03100
C189        C  0.22134877  0.52501424  0.84666483     0.05500
C190        C  0.19920533  0.52309022  0.86249705     0.03600
H191        H  0.24739676  0.49316384  0.83314383     0.08700
H192        H  0.18641169  0.53892144  0.86854729     0.07500
N193        N  0.60136692  0.80313539  0.83595502    -0.26900
N194        N  0.61470931  0.81345692  0.85567613    -0.34700
C195        C  0.64016706  0.80658355  0.85322567     0.01500
C196        C  0.64270185  0.79119266  0.83089808     0.07500
C197        C  0.61776964  0.78950545  0.82050222    -0.05600
H198        H  0.65549827  0.81199481  0.86687208     0.08200
H199        H  0.61181547  0.77858561  0.80328965     0.09400
Cu200      Cu  0.59660421  0.83547308  0.88506363     0.44200
Cu201      Cu  0.56113840  0.80558105  0.83177303     0.42000
Cu202      Cu  0.52408064  0.83505487  0.88351888     0.43900
N203        N  0.57270706  0.85687931  0.91056271    -0.34300
N204        N  0.54671112  0.85675196  0.91001841    -0.28500
C205        C  0.53769506  0.87328540  0.92860564    -0.04600
C206        C  0.55894043  0.88434138  0.94144809     0.07600
C207        C  0.58079805  0.87347591  0.92950347     0.01400
H208        H  0.51715181  0.87722385  0.93226616     0.09100
H209        H  0.60113324  0.87759273  0.93400782     0.08100
N210        N  0.50678467  0.81334354  0.85330013    -0.35700
N211        N  0.52069788  0.80360750  0.83368874    -0.27900
C212        C  0.50474800  0.79043558  0.81732877    -0.03100
C213        C  0.47949358  0.79162982  0.82717028     0.05500
C214        C  0.48146396  0.80628593  0.85004273     0.03600
H215        H  0.51130059  0.77980815  0.80015131     0.08700
H216        H  0.46574757  0.81113935  0.86347907     0.07500
N217        N  0.09671328  0.30070236  0.33667294    -0.26900
N218        N  0.11035896  0.30891020  0.35713845    -0.34700
C219        C  0.13534503  0.30047207  0.35455271     0.01500
C220        C  0.13725442  0.28640739  0.33128731     0.07500
C221        C  0.11238607  0.28703880  0.32054418    -0.05600
H222        H  0.15085734  0.30412211  0.36858807     0.08200
H223        H  0.10585572  0.27763399  0.30266611     0.09400
Cu224      Cu  0.09291739  0.33095924  0.38699202     0.44200
Cu225      Cu  0.05686274  0.30566827  0.33254654     0.42000
Cu226      Cu  0.02029303  0.33393589  0.38528348     0.43900
N227        N  0.06975838  0.35416020  0.41167901    -0.34300
N228        N  0.04378175  0.35512532  0.41108036    -0.28500
C229        C  0.03539096  0.37266048  0.42899226    -0.04600
C230        C  0.05704224  0.38329931  0.44141716     0.07600
C231        C  0.07847254  0.37113120  0.42998279     0.01400
H232        H  0.01502059  0.37754494  0.43244707     0.09100
H233        H  0.09895140  0.37455049  0.43445019     0.08100
N234        N  0.00282979  0.31332826  0.35473680    -0.35700
N235        N  0.01658909  0.30410745  0.33478665    -0.27900
C236        C  0.00055484  0.29141329  0.31821919    -0.03100
C237        C  0.97541722  0.29249304  0.32826069     0.05500
C238        C  0.97748637  0.30650220  0.35147235     0.03600
H239        H  0.00700511  0.28115219  0.30078463     0.08700
H240        H  0.96187735  0.31099017  0.36515842     0.07500
C241        C  0.31808536  0.20352128  0.22652170     0.02700
C242        C  0.29412959  0.21287719  0.23706062     0.02700
C243        C  0.28316582  0.20097605  0.25967274     0.02700
C244        C  0.29560646  0.17898896  0.27121804     0.02700
C245        C  0.31918815  0.16918941  0.26028390     0.02700
C246        C  0.33031120  0.18132748  0.23789982     0.02700
N247        N  0.39325123  0.98163502  0.36001552    -0.26900
N248        N  0.41328044  0.99518102  0.36937298    -0.34700
C249        C  0.41041169  0.02058557  0.36230580     0.01500
C250        C  0.38737348  0.02291035  0.34796781     0.07500
C251        C  0.37706230  0.99782396  0.34701583    -0.05600
H252        H  0.42418764  0.03608135  0.36693522     0.08200
H253        H  0.35959928  0.99149702  0.33673389     0.09400
Cu254      Cu  0.44307036  0.97701716  0.39083115     0.44200
Cu255      Cu  0.39030517  0.94132112  0.36212753     0.42000
Cu256      Cu  0.44184298  0.90414494  0.39246842     0.43900
N257        N  0.46800706  0.95364795  0.41347754    -0.34300
N258        N  0.46753496  0.92762734  0.41423955    -0.28500
C259        C  0.48578096  0.91925610  0.43148088    -0.04600
C260        C  0.49829229  0.94096681  0.44205601     0.07600
C261        C  0.48651526  0.96238631  0.43020261     0.01400
H262        H  0.48949294  0.89886165  0.43614512     0.09100
H263        H  0.49088456  0.98289902  0.43367758     0.08100
N264        N  0.41269870  0.88705355  0.36922035    -0.35700
N265        N  0.39357788  0.90111242  0.35874949    -0.27900
C266        C  0.37796493  0.88541042  0.34449160    -0.03100
C267        C  0.38760056  0.86009494  0.34593549     0.05500
C268        C  0.40968043  0.86178238  0.36178708     0.03600
H269        H  0.36109243  0.89213446  0.33351344     0.08700
H270        H  0.42265178  0.84590035  0.36733396     0.07500
C271        C  0.31739116  0.71176954  0.26319682     0.02700
C272        C  0.29383496  0.70030372  0.27250355     0.02700
C273        C  0.28448502  0.67684692  0.26095088     0.02700
C274        C  0.29760694  0.66580203  0.23921223     0.02700
C275        C  0.32095212  0.67732606  0.22977190     0.02700
C276        C  0.33100026  0.70017429  0.24192709     0.02700
C277        C  0.78507089  0.17868212  0.24034525     0.02700
C278        C  0.79780559  0.16719762  0.26215013     0.02700
C279        C  0.82035391  0.17931006  0.27293160     0.02700
C280        C  0.83007109  0.20283213  0.26198704     0.02700
C281        C  0.81775252  0.21400904  0.23980204     0.02700
C282        C  0.79507085  0.20211973  0.22911446     0.02700
N283        N  0.72024556  0.90178869  0.36119374    -0.26900
N284        N  0.69928540  0.88877104  0.36926827    -0.34700
C285        C  0.70120928  0.86361421  0.36127718     0.01500
C286        C  0.72454486  0.86080883  0.34759736     0.07500
C287        C  0.73609558  0.88533997  0.34801908    -0.05600
H288        H  0.68660046  0.84863216  0.36492391     0.08200
H289        H  0.75431502  0.89104450  0.33871610     0.09400
Cu290      Cu  0.66913891  0.90639472  0.39042539     0.44200
Cu291      Cu  0.72525679  0.94187012  0.36570379     0.42000
Cu292      Cu  0.67166925  0.97812953  0.39371370     0.43900
N293        N  0.64373692  0.92920540  0.41285616    -0.34300
N294        N  0.64464630  0.95516754  0.41394976    -0.28500
C295        C  0.62641742  0.96368537  0.43105765    -0.04600
C296        C  0.61347558  0.94209662  0.44127994     0.07600
C297        C  0.62492807  0.92056529  0.42930866     0.01400
H298        H  0.62326099  0.98407567  0.43613884     0.09100
H299        H  0.62031234  0.90009065  0.43269238     0.08100
N300        N  0.70278124  0.99586066  0.37415706    -0.35700
N301        N  0.72299085  0.98243511  0.36497436    -0.27900
C302        C  0.73960221  0.99899155  0.35288171    -0.03100
C303        C  0.72926457  0.02401827  0.35425713     0.05500
C304        C  0.70589138  0.02138685  0.36790476     0.03600
H305        H  0.75722379  0.99302447  0.34264925     0.08700
H306        H  0.69188528  0.03670288  0.37239266     0.07500
C307        C  0.81789737  0.66920254  0.23958166     0.02700
C308        C  0.82895026  0.68014722  0.26253434     0.02700
C309        C  0.81838217  0.70335093  0.27342153     0.02700
C310        C  0.79593209  0.71503862  0.26192696     0.02700
C311        C  0.78445582  0.70379021  0.23927242     0.02700
C312        C  0.79539211  0.68076721  0.22816565     0.02700
N313        N  0.01599905  0.59350484  0.35055928    -0.26900
N314        N  0.00173971  0.57823534  0.36592876    -0.34700
C315        C  0.97614732  0.58216549  0.36030733     0.01500
C316        C  0.97458180  0.60050013  0.34019440     0.07500
C317        C  0.00020766  0.60721375  0.33459682    -0.05600
H318        H  0.95999496  0.57204386  0.36968739     0.08200
H319        H  0.00699177  0.62106654  0.31997709     0.09400
Cu320      Cu  0.01939844  0.55221349  0.39222952     0.44200
Cu321      Cu  0.05625381  0.59475533  0.35105040     0.42000
Cu322      Cu  0.09291846  0.54957888  0.38926138     0.43900
N323        N  0.04333218  0.52785764  0.41501728    -0.34300
N324        N  0.06931973  0.52705711  0.41391687    -0.28500
C325        C  0.07809850  0.50907758  0.43117352    -0.04600
C326        C  0.05676301  0.49793608  0.44366603     0.07600
C327        C  0.03504544  0.51028012  0.43298280     0.01400
H328        H  0.09857019  0.50432414  0.43422735     0.09100
H329        H  0.01468556  0.50667403  0.43780963     0.08100
N330        N  0.11063513  0.57587524  0.36350290    -0.35700
N331        N  0.09647043  0.59301674  0.35018751    -0.27900
C332        C  0.11231366  0.60825591  0.33577791    -0.03100
C333        C  0.13785171  0.60034042  0.33997765     0.05500
C334        C  0.13619665  0.57962685  0.35761116     0.03600
H335        H  0.10558284  0.62379137  0.32294148     0.08700
H336        H  0.15228967  0.56846181  0.36581626     0.07500
N337        N  0.40209971  0.30137076  0.04219546    -0.26900
N338        N  0.42135022  0.31209990  0.05592346    -0.34700
C339        C  0.41805516  0.30583414  0.08150632     0.01500
C340        C  0.39554313  0.29060805  0.08379113     0.07500
C341        C  0.38602416  0.28830246  0.05851897    -0.05600
H342        H  0.43099234  0.31193385  0.09719148     0.08200
H343        H  0.36886248  0.27742114  0.05232212     0.09400
Cu344      Cu  0.45050252  0.33506887  0.03829689     0.44200
Cu345      Cu  0.39884408  0.30315141  0.00162030     0.42000
Cu346      Cu  0.44762973  0.33791287  0.96567249     0.43900
N347        N  0.47473262  0.35841778  0.01471101    -0.34300
N348        N  0.47355357  0.35934596  0.98873573    -0.28500
C349        C  0.49141071  0.37668106  0.97986180    -0.04600
C350        C  0.50443630  0.38725136  0.00117030     0.07600
C351        C  0.49339723  0.37525850  0.02294679     0.01400
H352        H  0.49449328  0.38140264  0.95937505     0.09100
H353        H  0.49842156  0.37865681  0.04330818     0.08100
N354        N  0.41904296  0.31528551  0.94741882    -0.35700
N355        N  0.40059708  0.30300261  0.96090719    -0.27900
C356        C  0.38503810  0.28979210  0.94418040    -0.03100
C357        C  0.39421058  0.29375311  0.91892994     0.05500
C358        C  0.41584046  0.31004058  0.92166370     0.03600
H359        H  0.36865409  0.27760861  0.95004383     0.08700
H360        H  0.42842688  0.31734263  0.90618859     0.07500
C361        C  0.29912390  0.21866807  0.76143398     0.02700
C362        C  0.32292619  0.20903095  0.77212269     0.02700
C363        C  0.33558972  0.18734652  0.76032732     0.02700
C364        C  0.32485660  0.17578993  0.73743336     0.02700
C365        C  0.30088970  0.18510655  0.72698706     0.02700
C366        C  0.28815525  0.20671095  0.73889804     0.02700
N367        N  0.40593125  0.90437524  0.65268940    -0.26900
N368        N  0.41835775  0.89052805  0.63459742    -0.34700
C369        C  0.41204932  0.86495774  0.63757945     0.01500
C370        C  0.39495335  0.86273966  0.65867060     0.07500
C371        C  0.39158482  0.88809425  0.66773538    -0.05600
H372        H  0.41963461  0.84918180  0.62555768     0.08200
H373        H  0.37950343  0.89429700  0.68405451     0.09400
Cu374      Cu  0.44385071  0.90777606  0.60755887     0.44200
Cu375      Cu  0.40834649  0.94490911  0.65576487     0.42000
Cu376      Cu  0.44710363  0.98033622  0.60873915     0.43900
N377        N  0.46889661  0.93040439  0.58430852    -0.34300
N378        N  0.46990465  0.95640514  0.58469959    -0.28500
C379        C  0.48819287  0.96457411  0.56746819    -0.04600
C380        C  0.49927295  0.94276671  0.55570235     0.07600
C381        C  0.48660451  0.92143936  0.56683188     0.01400
H382        H  0.49308868  0.98494012  0.56382142     0.09100
H383        H  0.48994855  0.90090920  0.56251381     0.08100
N384        N  0.42352467  0.99890807  0.63646304    -0.35700
N385        N  0.40981438  0.98555296  0.65400491    -0.27900
C386        C  0.39647929  0.00243620  0.66922803    -0.03100
C387        C  0.40189157  0.02768373  0.66091208     0.05500
C388        C  0.41916943  0.02480742  0.64006300     0.03600
H389        H  0.38340900  0.99669558  0.68495751     0.08700
H390        H  0.42777460  0.04027425  0.62830976     0.07500
C391        C  0.29896308  0.66864008  0.76145174     0.02700
C392        C  0.28739972  0.67914644  0.73846848     0.02700
C393        C  0.29791021  0.70215146  0.72689075     0.02700
C394        C  0.32056393  0.71405246  0.73770074     0.02700
C395        C  0.33245863  0.70331544  0.76045971     0.02700
C396        C  0.32175723  0.68041325  0.77220928     0.02700
N397        N  0.01843570  0.59537816  0.64653145    -0.26900
N398        N  0.00488866  0.57871978  0.63199783    -0.34700
C399        C  0.97907690  0.58250962  0.63647359     0.01500
C400        C  0.97652254  0.60232308  0.65496950     0.07500
C401        C  0.00182759  0.60995335  0.66087647    -0.05600
H402        H  0.96347022  0.57118050  0.62758433     0.08200
H403        H  0.00778077  0.62480564  0.67484076     0.09400
Cu404      Cu  0.02341730  0.55095366  0.60850583     0.44200
Cu405      Cu  0.05889399  0.59668363  0.64716247     0.42000
Cu406      Cu  0.09616487  0.54716458  0.61306375     0.43900
N407        N  0.04689636  0.52549740  0.58685932    -0.34300
N408        N  0.07283028  0.52404964  0.58823973    -0.28500
C409        C  0.08122148  0.50597159  0.57080473    -0.04600
C410        C  0.05958839  0.49556022  0.55800477     0.07600
C411        C  0.03822910  0.50836872  0.56871575     0.01400
H412        H  0.10158467  0.50089948  0.56757537     0.09100
H413        H  0.01782202  0.50567946  0.56348980     0.08100
N414        N  0.11336780  0.57561242  0.63730546    -0.35700
N415        N  0.09927406  0.59420244  0.64868101    -0.27900
C416        C  0.11521295  0.61050218  0.66185866    -0.03100
C417        C  0.14070480  0.60180019  0.65897995     0.05500
C418        C  0.13889129  0.57950663  0.64338202     0.03600
H419        H  0.10858492  0.62729951  0.67303968     0.08700
H420        H  0.15492308  0.56736067  0.63658031     0.07500
N421        N  0.01587993  0.29487118  0.65696811    -0.26900
N422        N  0.00262893  0.30668134  0.63805256    -0.34700
C423        C  0.97684011  0.30158744  0.64131515     0.01500
C424        C  0.97399095  0.28597764  0.66347774     0.07500
C425        C  0.99910031  0.28220955  0.67285597    -0.05600
H426        H  0.96141503  0.30871835  0.62858825     0.08200
H427        H  0.00484833  0.27062814  0.68970846     0.09400
Cu428      Cu  0.02142117  0.32913256  0.60941330     0.44200
Cu429      Cu  0.05624325  0.29480925  0.65951879     0.42000
Cu430      Cu  0.09410541  0.32779618  0.60981384     0.43900
N431        N  0.04533669  0.35161675  0.58488426    -0.34300
N432        N  0.07133943  0.35124690  0.58492821    -0.28500
C433        C  0.08015427  0.36884264  0.56719107    -0.04600
C434        C  0.05873666  0.38084472  0.55551210     0.07600
C435        C  0.03704342  0.36941274  0.56718289     0.01400
H436        H  0.10064984  0.37286318  0.56336226     0.09100
H437        H  0.01666087  0.37395503  0.56335861     0.08100
N438        N  0.11083040  0.30393732  0.63875304    -0.35700
N439        N  0.09655691  0.29251604  0.65718622    -0.27900
C440        C  0.11225824  0.27860527  0.67312638    -0.03100
C441        C  0.13777956  0.28122607  0.66438661     0.05500
C442        C  0.13622302  0.29741631  0.64251630     0.03600
H443        H  0.10543643  0.26715093  0.68966667     0.08700
H444        H  0.15231989  0.30397161  0.63029569     0.07500
C445        C  0.78653547  0.17665629  0.76363267     0.02700
C446        C  0.79675392  0.16755112  0.73944818     0.02700
C447        C  0.81798744  0.18078458  0.72744884     0.02700
C448        C  0.82858321  0.20350500  0.73928988     0.02700
C449        C  0.81780648  0.21317054  0.76305561     0.02700
C450        C  0.79670463  0.19980219  0.77517385     0.02700
N451        N  0.69751383  0.98118915  0.66091433    -0.26900
N452        N  0.68684986  0.99578365  0.64228540    -0.34700
C453        C  0.69388656  0.02104565  0.64628964     0.01500
C454        C  0.70962338  0.02215594  0.66851645     0.07500
C455        C  0.71139541  0.99652489  0.67721594    -0.05600
H456        H  0.68837677  0.03728283  0.63373219     0.08200
H457        H  0.72275383  0.98929012  0.69363265     0.09400
Cu458      Cu  0.66416214  0.97934390  0.61220192     0.44200
Cu459      Cu  0.69601122  0.94076127  0.66197582     0.42000
Cu460      Cu  0.66583174  0.90653569  0.60919645     0.43900
N461        N  0.64219157  0.95639208  0.58605872    -0.34300
N462        N  0.64280679  0.93037812  0.58525593    -0.28500
C463        C  0.62581163  0.92190195  0.56690066    -0.04600
C464        C  0.61388823  0.94347033  0.55552684     0.07600
C465        C  0.62474952  0.96502635  0.56810286     0.01400
H466        H  0.62220941  0.90145360  0.56236526     0.09100
H467        H  0.62003841  0.98547025  0.56473325     0.08100
N468        N  0.68987160  0.88793431  0.63649410    -0.35700
N469        N  0.70033035  0.90092715  0.65634510    -0.27900
C470        C  0.71552135  0.88464504  0.67039735    -0.03100
C471        C  0.71472924  0.86013528  0.65889655     0.05500
C472        C  0.69820233  0.86279074  0.63741045     0.03600
H473        H  0.72681247  0.89041761  0.68742429     0.08700
H474        H  0.69292092  0.84777304  0.62335724     0.07500
C475        C  0.79697257  0.71405510  0.73309991     0.02700
C476        C  0.81881313  0.70151374  0.72154836     0.02700
C477        C  0.82992023  0.67923193  0.73376766     0.02700
C478        C  0.81916200  0.66946173  0.75750947     0.02700
C479        C  0.79738362  0.68212804  0.76913831     0.02700
C480        C  0.78669727  0.70477666  0.75719157     0.02700
N481        N  0.40418280  0.58864505  0.96067666    -0.26900
N482        N  0.42280155  0.57745641  0.94650310    -0.34700
C483        C  0.41867542  0.58331935  0.92096647     0.01500
C484        C  0.39620027  0.59861228  0.91919559     0.07500
C485        C  0.38758633  0.60150696  0.94475282    -0.05600
H486        H  0.43098681  0.57683907  0.90491733     0.08200
H487        H  0.37088923  0.61278323  0.95143995     0.09400
Cu488      Cu  0.45208477  0.55442028  0.96379627     0.44200
Cu489      Cu  0.40316546  0.58809173  0.00117367     0.42000
Cu490      Cu  0.45326463  0.55423572  0.03682254     0.43900
N491        N  0.47683667  0.53103265  0.98683694    -0.34300
N492        N  0.47718149  0.53099946  0.01286862    -0.28500
C493        C  0.49497840  0.51329312  0.02117723    -0.04600
C494        C  0.50639933  0.50158996  0.99947701     0.07600
C495        C  0.49442000  0.51330036  0.97804722     0.01400
H496        H  0.49915685  0.50910360  0.04158364     0.09100
H497        H  0.49806886  0.50910822  0.95754189     0.08100
N498        N  0.42544456  0.57826968  0.05503952    -0.35700
N499        N  0.40686215  0.59022815  0.04145369    -0.27900
C500        C  0.39157409  0.60407934  0.05783213    -0.03100
C501        C  0.40083096  0.60080403  0.08306769     0.05500
C502        C  0.42240801  0.58430733  0.08068398     0.03600
H503        H  0.37491840  0.61575195  0.05175264     0.08700
H504        H  0.43481575  0.57711999  0.09634137     0.07500
N505        N  0.69198645  0.27388629  0.04259345    -0.26900
N506        N  0.68380782  0.29454054  0.05599330    -0.34700
C507        C  0.69121570  0.29176693  0.08126745     0.01500
C508        C  0.70453605  0.26816520  0.08370232     0.07500
C509        C  0.70452354  0.25735424  0.05882815    -0.05600
H510        H  0.68779930  0.30614963  0.09652705     0.08200
H511        H  0.71420009  0.23951131  0.05259978     0.09400
Cu512      Cu  0.66436737  0.32569819  0.03801265     0.44200
Cu513      Cu  0.69018847  0.27095478  0.00224154     0.42000
Cu514      Cu  0.66709759  0.32628087  0.96551661     0.43900
N515        N  0.64467167  0.35255417  0.01421773    -0.34300
N516        N  0.64559115  0.35278538  0.98821823    -0.28500
C517        C  0.62967339  0.37192214  0.97926048    -0.04600
C518        C  0.61821130  0.38429442  0.00056786     0.07600
C519        C  0.62819389  0.37153524  0.02238249     0.01400
H520        H  0.62630528  0.37616778  0.95870902     0.09100
H521        H  0.62340511  0.37538323  0.04271739     0.08100
N522        N  0.68789244  0.29536376  0.94847905    -0.35700
N523        N  0.69557080  0.27475569  0.96226184    -0.27900
C524        C  0.70909661  0.25836621  0.94668165    -0.03100
C525        C  0.71008751  0.26908258  0.92176163     0.05500
C526        C  0.69638646  0.29255211  0.92354060     0.03600
H527        H  0.71816620  0.24034143  0.95329693     0.08700
H528        H  0.69326061  0.30673464  0.90801780     0.07500
N529        N  0.70204405  0.60497440  0.03779536    -0.26900
N530        N  0.69445072  0.58407635  0.05119507    -0.34700
C531        C  0.70237508  0.58671193  0.07631023     0.01500
C532        C  0.71539935  0.61048544  0.07865048     0.07500
C533        C  0.71478926  0.62149758  0.05386947    -0.05600
H534        H  0.69885988  0.57246675  0.09168075     0.08200
H535        H  0.72348127  0.63989262  0.04773312     0.09400
Cu536      Cu  0.67332749  0.55368283  0.03393274     0.44200
Cu537      Cu  0.69722379  0.60930954  0.99783403     0.42000
Cu538      Cu  0.66928987  0.55636475  0.96154039     0.43900
N539        N  0.65022953  0.52892482  0.01105175    -0.34300
N540        N  0.64878058  0.52989387  0.98509696    -0.28500
C541        C  0.63112416  0.51204342  0.97684720    -0.04600
C542        C  0.62092076  0.49933170  0.99857698     0.07600
C543        C  0.63347570  0.51048850  0.01991322     0.01400
H544        H  0.62567834  0.50898756  0.95653882     0.09100
H545        H  0.63028837  0.50594033  0.04041965     0.08100
N546        N  0.68978503  0.58699767  0.94373081    -0.35700
N547        N  0.69899701  0.60698847  0.95745262    -0.27900
C548        C  0.71172475  0.62352851  0.94135901    -0.03100
C549        C  0.71069421  0.61348588  0.91617782     0.05500
C550        C  0.69663177  0.59025248  0.91833759     0.03600
H551        H  0.72190105  0.64102862  0.94778913     0.08700
H552        H  0.69211124  0.57655519  0.90274090     0.07500
N553        N  0.59771394  0.09628821  0.14802902    -0.26900
N554        N  0.61145883  0.07780965  0.13607497    -0.34700
C555        C  0.63704772  0.08108517  0.14210119     0.01500
C556        C  0.63926974  0.10276831  0.15847486     0.07500
C557        C  0.61398784  0.11188905  0.16168164    -0.05600
H558        H  0.65277518  0.06863786  0.13513612     0.08200
H559        H  0.60775846  0.12834633  0.17357585     0.09400
Cu560      Cu  0.59369554  0.04953272  0.11219770     0.44200
Cu561      Cu  0.55732336  0.09883958  0.14681583     0.42000
Cu562      Cu  0.52101446  0.05179737  0.10928590     0.43900
N563        N  0.57041704  0.02540714  0.08845585    -0.34300
N564        N  0.54444502  0.02627943  0.08742663    -0.28500
C565        C  0.53595510  0.00866014  0.06962076    -0.04600
C566        C  0.55750879  0.99613435  0.05886269     0.07600
C567        C  0.57900996  0.00721465  0.07127378     0.01400
H568        H  0.51556577  0.00548354  0.06460611     0.09100
H569        H  0.59945071  0.00264512  0.06781733     0.08100
N570        N  0.50306650  0.08017104  0.13271755    -0.35700
N571        N  0.51685688  0.09760101  0.14610408    -0.27900
C572        C  0.50048641  0.11320339  0.15960224    -0.03100
C573        C  0.47508047  0.10525373  0.15467003     0.05500
C574        C  0.47733051  0.08422010  0.13749689     0.03600
H575        H  0.50669667  0.12890008  0.17250067     0.08700
H576        H  0.46154997  0.07260843  0.12930644     0.07500
N577        N  0.21326864  0.48038741  0.14532138    -0.26900
N578        N  0.19554153  0.49461282  0.13283007    -0.34700
C579        C  0.19991261  0.52019353  0.13811631     0.01500
C580        C  0.22151368  0.52189561  0.15460354     0.07500
C581        C  0.22945532  0.49632339  0.15867749    -0.05600
H582        H  0.18821819  0.53626211  0.13061104     0.08200
H583        H  0.24547454  0.48970047  0.17094099     0.09400
Cu584      Cu  0.16659196  0.47749508  0.10949946     0.44200
Cu585      Cu  0.21367124  0.43996081  0.14530631     0.42000
Cu586      Cu  0.16368812  0.40468819  0.11075195     0.43900
N587        N  0.14118959  0.45465299  0.08687798    -0.34300
N588        N  0.14030144  0.42864213  0.08730119    -0.28500
C589        C  0.12230882  0.42037092  0.06982795    -0.04600
C590        C  0.11133872  0.44210788  0.05783089     0.07600
C591        C  0.12370547  0.46350949  0.06912478     0.01400
H592        H  0.11770032  0.39997353  0.06601425     0.09100
H593        H  0.12045744  0.48401262  0.06458131     0.08100
N594        N  0.19083583  0.38637241  0.13517122    -0.35700
N595        N  0.20938954  0.39981195  0.14732561    -0.27900
C596        C  0.22421594  0.38335202  0.16151419    -0.03100
C597        C  0.21463387  0.35824820  0.15828677     0.05500
C598        C  0.19338723  0.36073419  0.14143756     0.03600
H599        H  0.24074106  0.38930359  0.17344076     0.08700
H600        H  0.18087682  0.34518509  0.13419030     0.07500
N601        N  0.22599203  0.07913265  0.54295357    -0.26900
N602        N  0.20593637  0.07019418  0.55681127    -0.34700
C603        C  0.20927957  0.07732576  0.58214453     0.01500
C604        C  0.23261090  0.09126103  0.58415673     0.07500
C605        C  0.24261401  0.09189601  0.55892736    -0.05600
H606        H  0.19555077  0.07312388  0.59779883     0.08200
H607        H  0.26014848  0.10191048  0.55234675     0.09400
Cu608      Cu  0.17503851  0.04939059  0.53948258     0.44200
Cu609      Cu  0.22877244  0.07708816  0.50243715     0.42000
Cu610      Cu  0.17477941  0.05035588  0.46685281     0.43900
N611        N  0.14917283  0.02770211  0.51602384    -0.34300
N612        N  0.14921257  0.02802458  0.49000045    -0.28500
C613        C  0.13110148  0.01086627  0.48120416    -0.04600
C614        C  0.11910753  0.99910025  0.50258766     0.07600
C615        C  0.13098501  0.01032702  0.52433688     0.01400
H616        H  0.12725047  0.00692487  0.46068615     0.09100
H617        H  0.12705035  0.00583292  0.54472739     0.08100
N618        N  0.20475968  0.07178303  0.44874339    -0.35700
N619        N  0.22516855  0.08062642  0.46208360    -0.27900
C620        C  0.24123771  0.09374292  0.44575396    -0.03100
C621        C  0.23043546  0.09335618  0.42082678     0.05500
C622        C  0.20726387  0.07925989  0.42342480     0.03600
H623        H  0.25904098  0.10357476  0.45182907     0.08700
H624        H  0.19316906  0.07499178  0.40812099     0.07500
O625        O  0.03105797  0.91568935  0.52186999    -0.72500
O626        O  0.08925424  0.96963297  0.52367293    -0.73500
O627        O  0.03344234  0.97162147  0.52299531    -0.62100
O628        O  0.08702712  0.91337441  0.52264195    -0.70500
O629        O  0.08756051  0.91411581  0.47907231    -0.70100
O630        O  0.03404867  0.97241671  0.47941529    -0.61300
O631        O  0.08979332  0.97031067  0.48010735    -0.73900
O632        O  0.03163008  0.91645908  0.47830356    -0.72600
Cu633      Cu  0.06020616  0.94252640  0.52430690     1.04600
Cu634      Cu  0.06081323  0.94333332  0.47771296     1.04300
C635        C  0.02209047  0.90769605  0.49981877     0.93700
C636        C  0.09846216  0.97869664  0.50212761     0.92800
C637        C  0.02535150  0.98120383  0.50125957     0.85000
C638        C  0.09562803  0.90446624  0.50080481     0.91200
O639        O  0.58000539  0.96862221  0.97331313    -0.72500
O640        O  0.57909686  0.91139430  0.02817260    -0.73500
O641        O  0.58009995  0.91264458  0.97209775    -0.62100
O642        O  0.57943424  0.96726664  0.02931684    -0.70500
O643        O  0.53588366  0.96744734  0.02877472    -0.70100
O644        O  0.53655477  0.91260302  0.97142901    -0.61300
O645        O  0.53554118  0.91154740  0.02751670    -0.73900
O646        O  0.53644554  0.96855755  0.97290594    -0.72600
Cu647      Cu  0.58118345  0.93995478  0.00073638     1.04600
Cu648      Cu  0.53460223  0.94001571  0.00012266     1.04300
C649        C  0.55827342  0.97761067  0.96452833     0.93700
C650        C  0.55713151  0.90265501  0.03663717     0.92800
C651        C  0.55848779  0.90407784  0.96267627     0.85000
C652        C  0.55759943  0.97598305  0.03804636     0.91200
O653        O  0.02649824  0.42056710  0.97248311    -0.72500
O654        O  0.08233919  0.42050726  0.02828949    -0.73500
O655        O  0.02653964  0.42016341  0.02844223    -0.62100
O656        O  0.08230972  0.42082108  0.97223105    -0.70500
O657        O  0.08218004  0.46441711  0.97246560    -0.70100
O658        O  0.02656996  0.46376412  0.02882097    -0.61300
O659        O  0.08237527  0.46411719  0.02847740    -0.73900
O660        O  0.02631338  0.46417874  0.97287010    -0.72600
Cu661      Cu  0.05443312  0.41899611  0.00034927     1.04600
Cu662      Cu  0.05434633  0.46563691  0.00065937     1.04300
C663        C  0.01764221  0.44241487  0.96387678     0.93700
C664        C  0.09108502  0.44227091  0.03723214     0.92800
C665        C  0.01786745  0.44187963  0.03755736     0.85000
C666        C  0.09097164  0.44270117  0.96344082     0.91200
O667        O  0.53508384  0.47156018  0.97766766    -0.72500
O668        O  0.59000936  0.41435131  0.97830324    -0.73500
O669        O  0.53407308  0.41556779  0.97867330    -0.62100
O670        O  0.59103678  0.47035246  0.97736101    -0.70500
O671        O  0.59146011  0.47079290  0.02095360    -0.70100
O672        O  0.53438616  0.41622766  0.02226363    -0.61300
O673        O  0.59010155  0.41492333  0.02188777    -0.73900
O674        O  0.53553026  0.47215198  0.02124139    -0.72600
Cu675      Cu  0.56255846  0.44293541  0.97646195     1.04600
Cu676      Cu  0.56288805  0.44356801  0.02308056     1.04300
C677        C  0.52663010  0.48082050  0.99942202     0.93700
C678        C  0.59858453  0.40556242  0.00020995     0.92800
C679        C  0.52527682  0.40727129  0.00068266     0.85000
C680        C  0.60021446  0.47918246  0.99898001     0.91200
O681        O  0.03567890  0.41219936  0.47140389    -0.72500
O682        O  0.03715810  0.46698382  0.52854691    -0.73500
O683        O  0.03558372  0.46812259  0.47274954    -0.62100
O684        O  0.03688155  0.41098030  0.52728908    -0.70500
O685        O  0.08043149  0.41072359  0.52656651    -0.70100
O686        O  0.07913988  0.46805514  0.47183135    -0.61300
O687        O  0.08070976  0.46673890  0.52779238    -0.73900
O688        O  0.07923645  0.41210204  0.47070070    -0.72600
Cu689      Cu  0.03480919  0.43957401  0.50003997     1.04600
Cu690      Cu  0.08139433  0.43941927  0.49916923     1.04300
C691        C  0.05730644  0.40348806  0.46212069     0.93700
C692        C  0.05915604  0.47548357  0.53715509     0.92800
C693        C  0.05717729  0.47708542  0.46369636     0.85000
C694        C  0.05873396  0.40180947  0.53550935     0.91200
O695        O  0.58419359  0.92031506  0.47053138    -0.72500
O696        O  0.52879506  0.92061739  0.52697199    -0.73500
O697        O  0.52823686  0.91972417  0.47111401    -0.62100
O698        O  0.58477743  0.92124763  0.52646495    -0.70500
O699        O  0.58437931  0.96484341  0.52607233    -0.70100
O700        O  0.52807547  0.96331726  0.47039467    -0.61300
O701        O  0.52850572  0.96422031  0.52627625    -0.73900
O702        O  0.58403375  0.96392335  0.47018100    -0.72600
Cu703      Cu  0.55653608  0.91895397  0.49879497     1.04600
Cu704      Cu  0.55623689  0.96558802  0.49818975     1.04300
C705        C  0.59289447  0.94209187  0.46155669     0.93700
C706        C  0.51985037  0.94249560  0.53540894     0.92800
C707        C  0.51920030  0.94133795  0.46209139     0.85000
C708        C  0.59342788  0.94321289  0.53503868     0.91200
C709        C  0.76761216  0.66708659  0.82977193     0.30200
C710        C  0.75914923  0.67176815  0.85553588    -0.36200
C711        C  0.74511801  0.65134346  0.86754917     0.16200
C712        C  0.73954696  0.62792208  0.85509850     0.22000
C713        C  0.74806564  0.62320972  0.82927598    -0.34300
C714        C  0.76230779  0.64360785  0.81730302     0.16100
O715        O  0.78085779  0.68358996  0.81482550    -0.26300
C716        C  0.78428562  0.67048287  0.79250235     0.05900
C717        C  0.77315196  0.64549521  0.79291688    -0.31200
O718        O  0.72629515  0.61151122  0.87025375    -0.23000
C719        C  0.72350634  0.62461999  0.89271538    -0.03000
C720        C  0.73482041  0.64948782  0.89208513    -0.17400
H721        H  0.76328255  0.69005519  0.86555552     0.20600
H722        H  0.74398889  0.60491537  0.81927251     0.18900
H723        H  0.77275549  0.63107824  0.77731518     0.18900
H724        H  0.73556079  0.66404951  0.90754510     0.14700
C725        C  0.75257976  0.81377421  0.69256555     0.30200
C726        C  0.76807918  0.80460583  0.71335752    -0.36200
C727        C  0.77381690  0.77773529  0.71316123     0.16200
C728        C  0.76516273  0.76101269  0.69366841     0.22000
C729        C  0.74984507  0.77025630  0.67264942    -0.34300
C730        C  0.74383443  0.79717956  0.67300302     0.16100
O731        O  0.74380303  0.83790511  0.68979592    -0.26300
C732        C  0.72914091  0.83691075  0.66823234     0.05900
C733        C  0.72849473  0.81207375  0.65679560    -0.31200
O734        O  0.77220785  0.73645023  0.69792225    -0.23000
C735        C  0.78546700  0.73756788  0.72041883    -0.03000
C736        C  0.78711101  0.76272172  0.73079490    -0.17400
H737        H  0.77463333  0.81743016  0.72898057     0.20600
H738        H  0.74260188  0.75726931  0.65747722     0.18900
H739        H  0.71780263  0.80579730  0.63954640     0.18900
H740        H  0.79647091  0.76888386  0.74884232     0.14700
C741        C  0.76922699  0.21613025  0.83645790     0.30200
C742        C  0.76281822  0.21257239  0.86299437    -0.36200
C743        C  0.74744029  0.23232598  0.87444246     0.16200
C744        C  0.73889764  0.25414210  0.86080529     0.22000
C745        C  0.74539459  0.25775350  0.83423622    -0.34300
C746        C  0.76081043  0.23797415  0.82276776     0.16100
O747        O  0.78306872  0.19988829  0.82179504    -0.26300
C748        C  0.78358966  0.21149192  0.79840556     0.05900
C749        C  0.77012444  0.23526304  0.79785033    -0.31200
O750        O  0.72456077  0.27003277  0.87547054    -0.23000
C751        C  0.72394326  0.25818622  0.89878827    -0.03000
C752        C  0.73786781  0.23467442  0.89923964    -0.17400
H753        H  0.76924047  0.19550259  0.87391854     0.20600
H754        H  0.73880976  0.27472165  0.82324919     0.18900
H755        H  0.76738915  0.24839692  0.78135096     0.18900
H756        H  0.74056157  0.22121168  0.91546608     0.14700
C757        C  0.76994443  0.10639172  0.72190174     0.30200
C758        C  0.76311951  0.07993408  0.72534215    -0.36200
C759        C  0.74719359  0.06893872  0.70576277     0.16200
C760        C  0.73838442  0.08296608  0.68430716     0.22000
C761        C  0.74527692  0.10946054  0.68083460    -0.34300
C762        C  0.76140346  0.12042232  0.70032936     0.16100
O763        O  0.78405279  0.12076297  0.73817423    -0.26300
C764        C  0.78486768  0.14422831  0.72669751     0.05900
C765        C  0.77106637  0.14520029  0.70315488    -0.31200
O766        O  0.72368257  0.06863855  0.66842734    -0.23000
C767        C  0.72318578  0.04511037  0.67986288    -0.03000
C768        C  0.73746520  0.04422467  0.70315154    -0.17400
H769        H  0.76967305  0.06872799  0.74217358     0.20600
H770        H  0.73853645  0.12073974  0.66413055     0.18900
H771        H  0.76783041  0.16199856  0.69053474     0.18900
H772        H  0.74040972  0.02772669  0.71622581     0.14700
C773        C  0.92616836  0.25477264  0.70169867     0.30200
C774        C  0.91672653  0.24089163  0.72350391    -0.36200
C775        C  0.89053533  0.23274309  0.72216198     0.16200
C776        C  0.87463552  0.23782601  0.70081397     0.22000
C777        C  0.88402062  0.25201799  0.67905793    -0.34300
C778        C  0.91029874  0.26028009  0.68043117     0.16100
O779        O  0.95031842  0.26336425  0.69854930    -0.26300
C780        C  0.95002053  0.27475337  0.67505007     0.05900
C781        C  0.92559188  0.27358735  0.66284928    -0.31200
O782        O  0.85084321  0.22797966  0.70370321    -0.23000
C783        C  0.85159597  0.21663901  0.72726104    -0.03000
C784        C  0.87578496  0.21895267  0.73961085    -0.17400
H785        H  0.92905155  0.23649421  0.74023680     0.20600
H786        H  0.87177759  0.25612093  0.66217491     0.18900
H787        H  0.92014142  0.28078435  0.64360300     0.18900
H788        H  0.88152617  0.21160139  0.75870344     0.14700
C789        C  0.87598357  0.64451310  0.69590053     0.30200
C790        C  0.88509276  0.62906319  0.67492785    -0.36200
C791        C  0.91210674  0.62359353  0.67480430     0.16200
C792        C  0.92892437  0.63292332  0.69389549     0.22000
C793        C  0.91976682  0.64795052  0.71504594    -0.34300
C794        C  0.89281541  0.65323660  0.71526849     0.16100
O795        O  0.85166036  0.65256621  0.69963399    -0.26300
C796        C  0.85301476  0.66634793  0.72179644     0.05900
C797        C  0.87806920  0.66738168  0.73244482    -0.31200
O798        O  0.95354266  0.62654190  0.68941182    -0.23000
C799        C  0.95257990  0.61267696  0.66731506    -0.03000
C800        C  0.92727666  0.61002142  0.65735575    -0.17400
H801        H  0.87210053  0.62208397  0.65963066     0.20600
H802        H  0.93282277  0.65530969  0.73009533     0.18900
H803        H  0.88442497  0.67737296  0.75007792     0.18900
H804        H  0.92111199  0.60019567  0.63954858     0.14700
C805        C  0.33885315  0.65147786  0.83262180     0.30200
C806        C  0.33471620  0.64265235  0.85837091    -0.36200
C807        C  0.35597742  0.62994781  0.87036560     0.16200
C808        C  0.37964052  0.62581454  0.85784484     0.22000
C809        C  0.38379354  0.63469645  0.83202452    -0.34300
C810        C  0.36259688  0.64775018  0.82011815     0.16100
O811        O  0.32158552  0.66375765  0.81776079    -0.26300
C812        C  0.33447126  0.66825181  0.79548337     0.05900
C813        C  0.36007749  0.65870733  0.79580634    -0.31200
O814        O  0.39689261  0.61370887  0.87301497    -0.23000
C815        C  0.38411888  0.61030267  0.89559296    -0.03000
C816        C  0.35860847  0.62002113  0.89500608    -0.17400
H817        H  0.31625356  0.64566817  0.86843614     0.20600
H818        H  0.40230719  0.63184131  0.82200889     0.18900
H819        H  0.37446492  0.65930295  0.78017958     0.18900
H820        H  0.34415900  0.62000999  0.91058524     0.14700
C821        C  0.20212124  0.61937038  0.68535639     0.30200
C822        C  0.22811385  0.61574373  0.69388439    -0.36200
C823        C  0.23985115  0.63731254  0.70651427     0.16200
C824        C  0.22702841  0.66090769  0.71020081     0.22000
C825        C  0.20110834  0.66450454  0.70175588    -0.34300
C826        C  0.18930375  0.64289371  0.68945405     0.16100
O827        O  0.18707446  0.60175978  0.67358378    -0.26300
C828        C  0.16428738  0.61418369  0.67037203     0.05900
C829        C  0.16462667  0.63979954  0.67987694    -0.31200
O830        O  0.24175677  0.67856892  0.72209735    -0.23000
C831        C  0.26428311  0.66609082  0.72637241    -0.03000
C832        C  0.26424472  0.64036598  0.71706508    -0.17400
H833        H  0.23839192  0.59736025  0.69105957     0.20600
H834        H  0.19078467  0.68284353  0.70473370     0.18900
H835        H  0.14887578  0.65405905  0.67990739     0.18900
H836        H  0.28008205  0.62621530  0.71758637     0.14700
C837        C  0.36291051  0.81478751  0.69645939     0.30200
C838        C  0.34905363  0.80508289  0.71821562    -0.36200
C839        C  0.34363512  0.77808514  0.71808992     0.16200
C840        C  0.35106468  0.76172576  0.69780063     0.22000
C841        C  0.36506408  0.77142777  0.67605130    -0.34300
C842        C  0.37073915  0.79845145  0.67630728     0.16100
O843        O  0.37021026  0.83935769  0.69276494    -0.26300
C844        C  0.38308524  0.83885624  0.67003227     0.05900
C845        C  0.38407598  0.81389404  0.65887231    -0.31200
O846        O  0.34383871  0.73712357  0.70178558    -0.23000
C847        C  0.33187749  0.73777358  0.72503553    -0.03000
C848        C  0.33116913  0.76271621  0.73608857    -0.17400
H849        H  0.34307004  0.81769475  0.73423290     0.20600
H850        H  0.37123962  0.75876047  0.66012401     0.18900
H851        H  0.39324078  0.80801070  0.64061689     0.18900
H852        H  0.32268876  0.76856018  0.75466840     0.14700
C853        C  0.28543750  0.15267725  0.66791147     0.30200
C854        C  0.29025087  0.14290249  0.64265675    -0.36200
C855        C  0.27017769  0.12774649  0.63151874     0.16200
C856        C  0.24693293  0.12231122  0.64432018     0.22000
C857        C  0.24210834  0.13209949  0.66971299    -0.34300
C858        C  0.26217246  0.14752075  0.68080483     0.16100
O859        O  0.30174138  0.16698266  0.68201669    -0.26300
C860        C  0.28876832  0.17132112  0.70425131     0.05900
C861        C  0.26399411  0.15970053  0.70461118    -0.31200
O862        O  0.23069753  0.10815842  0.62977348    -0.23000
C863        C  0.24376342  0.10465515  0.60735667    -0.03000
C864        C  0.26844359  0.11635208  0.60747269    -0.17400
H865        H  0.30839062  0.14693971  0.63233653     0.20600
H866        H  0.22395025  0.12816587  0.67999225     0.18900
H867        H  0.24980516  0.15962977  0.72041399     0.18900
H868        H  0.28287764  0.11686266  0.59188212     0.14700
C869        C  0.22560908  0.22933473  0.72062653     0.30200
C870        C  0.19850503  0.23333637  0.72311133    -0.36200
C871        C  0.18652343  0.24760976  0.70283550     0.16200
C872        C  0.20021115  0.25743358  0.68159721     0.22000
C873        C  0.22732591  0.25326572  0.67901768    -0.34300
C874        C  0.23930774  0.23886151  0.69924276     0.16100
O875        O  0.24079107  0.21678250  0.73743238    -0.26300
C876        C  0.26447543  0.21814837  0.72656326     0.05900
C877        C  0.26476612  0.23158875  0.70279449    -0.31200
O878        O  0.18503890  0.27059931  0.66518360    -0.23000
C879        C  0.16131590  0.26907085  0.67603669    -0.03000
C880        C  0.16110592  0.25494085  0.69944768    -0.17400
H881        H  0.18754125  0.22594527  0.73975398     0.20600
H882        H  0.23832877  0.26080324  0.66245939     0.18900
H883        H  0.28139774  0.23556055  0.69017628     0.18900
H884        H  0.14466980  0.25085335  0.71227183     0.14700
C885        C  0.36821861  0.07563139  0.69687972     0.30200
C886        C  0.35150721  0.08484164  0.71669540    -0.36200
C887        C  0.34788094  0.11207023  0.71771640     0.16200
C888        C  0.35977443  0.12915808  0.70033831     0.22000
C889        C  0.37650063  0.11991560  0.68040449    -0.34300
C890        C  0.38024487  0.09257630  0.67946185     0.16100
O891        O  0.37434504  0.05089782  0.69257596    -0.26300
C892        C  0.39057413  0.05181590  0.67215070     0.05900
C893        C  0.39501568  0.07727054  0.66309377    -0.31200
O894        O  0.35349021  0.15388045  0.70495989    -0.23000
C895        C  0.33750207  0.15245696  0.72559861    -0.03000
C896        C  0.33325956  0.12699279  0.73434474    -0.17400
H897        H  0.34204543  0.07166282  0.73043457     0.20600
H898        H  0.38596689  0.13310119  0.66666987     0.18900
H899        H  0.40722523  0.08353734  0.64686582     0.18900
H900        H  0.32106666  0.12052211  0.75050222     0.14700
C901        C  0.35999541  0.24397348  0.81900979     0.30200
C902        C  0.38086127  0.25935958  0.82857695    -0.36200
C903        C  0.37896821  0.26732063  0.85496113     0.16200
C904        C  0.35805281  0.26045364  0.87076586     0.22000
C905        C  0.33713604  0.24538900  0.86113801    -0.34300
C906        C  0.33897953  0.23753238  0.83485349     0.16100
O907        O  0.35757379  0.23436375  0.79502657    -0.26300
C908        C  0.33463095  0.22178965  0.79559502     0.05900
C909        C  0.32225246  0.22309421  0.81986812    -0.31200
O910        O  0.36059528  0.26909429  0.89500941    -0.23000
C911        C  0.38335289  0.28187875  0.89486549    -0.03000
C912        C  0.39565125  0.28157761  0.87041194    -0.17400
H913        H  0.39744295  0.26461518  0.81637609     0.20600
H914        H  0.32063481  0.23998003  0.87338636     0.18900
H915        H  0.30348503  0.21484887  0.82546904     0.18900
H916        H  0.41440370  0.28997932  0.86502882     0.14700
C917        C  0.76749186  0.66541604  0.16695077     0.30200
C918        C  0.75934569  0.67018185  0.14111530    -0.36200
C919        C  0.74713492  0.64912943  0.12829769     0.16200
C920        C  0.74295231  0.62507191  0.14009870     0.22000
C921        C  0.75115240  0.62028353  0.16598131    -0.34300
C922        C  0.76359689  0.64130263  0.17874552     0.16100
O923        O  0.77927421  0.68235661  0.18254030    -0.26300
C924        C  0.78319238  0.66887632  0.20456366     0.05900
C925        C  0.77379694  0.64323162  0.20337421    -0.31200
O926        O  0.73106500  0.60823431  0.12437708    -0.23000
C927        C  0.72776504  0.62170179  0.10221107    -0.03000
C928        C  0.73741339  0.64722541  0.10354533    -0.17400
H929        H  0.76238787  0.68897723  0.13163994     0.20600
H930        H  0.74813176  0.60150763  0.17545202     0.18900
H931        H  0.77419095  0.62837695  0.21856679     0.18900
H932        H  0.73725111  0.66224354  0.08848873     0.14700
C933        C  0.91257258  0.62305496  0.32027144     0.30200
C934        C  0.88583148  0.62923680  0.32284433    -0.36200
C935        C  0.87486467  0.64410752  0.30236235     0.16200
C936        C  0.88909277  0.65190686  0.28062569     0.22000
C937        C  0.91572506  0.64568966  0.27802796    -0.34300
C938        C  0.92676722  0.63127599  0.29868430     0.16100
O939        O  0.92721471  0.61043195  0.33758538    -0.26300
C940        C  0.95109171  0.61087922  0.32697694     0.05900
C941        C  0.95190856  0.62353395  0.30278318    -0.31200
O942        O  0.87502714  0.66570647  0.26387356    -0.23000
C943        C  0.85156984  0.66706526  0.27517857    -0.03000
C944        C  0.85023945  0.65398591  0.29912307    -0.17400
H945        H  0.87453130  0.62336932  0.33985212     0.20600
H946        H  0.92717379  0.65210025  0.26130852     0.18900
H947        H  0.96870879  0.62697157  0.29023750     0.18900
H948        H  0.83349841  0.65193321  0.31203933     0.14700
C949        C  0.75770289  0.76276448  0.29400592     0.30200
C950        C  0.73597768  0.77268847  0.30778162    -0.36200
C951        C  0.73836373  0.79853787  0.31708877     0.16200
C952        C  0.76052620  0.81357928  0.31294079     0.22000
C953        C  0.78220447  0.80366902  0.29921293    -0.34300
C954        C  0.77986939  0.77785174  0.29004306     0.16100
O955        O  0.76008119  0.73890147  0.28419432    -0.26300
C956        C  0.78413059  0.73875056  0.27398291     0.05900
C957        C  0.79726783  0.76249978  0.27688614    -0.31200
O958        O  0.75857246  0.83723753  0.32319545    -0.23000
C959        C  0.73490238  0.83740977  0.33419584    -0.03000
C960        C  0.72141040  0.81383079  0.33107889    -0.17400
H961        H  0.71855691  0.76100991  0.31119976     0.14000
H962        H  0.79974831  0.81523499  0.29605471     0.18900
H963        H  0.81697615  0.76744630  0.27068469     0.18900
H964        H  0.70192856  0.80879852  0.33788811     0.14700
C965        C  0.68625282  0.13998972  0.19225663     0.30200
C966        C  0.69562771  0.16161801  0.20649467    -0.36200
C967        C  0.72189680  0.16031552  0.21448984     0.16200
C968        C  0.73786915  0.13911582  0.20902735     0.22000
C969        C  0.72849408  0.11747977  0.19468202    -0.34300
C970        C  0.70221908  0.11887880  0.18646125     0.16100
O971        O  0.66228198  0.13711746  0.18302256    -0.26300
C972        C  0.66284209  0.11395918  0.17093286     0.05900
C973        C  0.68722928  0.10171682  0.17232858    -0.31200
O974        O  0.76197030  0.14235790  0.21795071    -0.23000
C975        C  0.76139654  0.16600730  0.22908454    -0.03000
C976        C  0.73694912  0.17802944  0.22763656    -0.17400
H977        H  0.68333269  0.17837691  0.21088121     0.20600
H978        H  0.74088515  0.10085460  0.19003738     0.18900
H979        H  0.69291775  0.08279365  0.16450213     0.18900
H980        H  0.73135939  0.19728048  0.23469478     0.14700
C981        C  0.73642332  0.25566316  0.14357421     0.30200
C982        C  0.74659975  0.26126326  0.16860397    -0.36200
C983        C  0.76042954  0.24077989  0.18086427     0.16200
C984        C  0.76386010  0.21648380  0.16933097     0.22000
C985        C  0.75382578  0.21094825  0.14435880    -0.34300
C986        C  0.74015817  0.23139586  0.13209267     0.16100
O987        O  0.72296014  0.27183089  0.12838914    -0.26300
C988        C  0.71818946  0.25767987  0.10691850     0.05900
C989        C  0.72843674  0.23240663  0.10818762    -0.31200
O990        O  0.77677198  0.19996910  0.18444451    -0.23000
C991        C  0.78188671  0.21383807  0.20594224    -0.03000
C992        C  0.77219792  0.23939985  0.20485263    -0.17400
H993        H  0.74388043  0.28019424  0.17787741     0.20600
H994        H  0.75641794  0.19195966  0.13516389     0.18900
H995        H  0.72753143  0.21702888  0.09355039     0.18900
H996        H  0.77315225  0.25445370  0.21982302     0.14700
C997        C  0.76547459  0.07104430  0.31952945     0.30200
C998        C  0.78689959  0.08064644  0.30515127    -0.36200
C999        C  0.78368975  0.10556435  0.29392155     0.16200
C1000       C  0.76101380  0.12011903  0.29670547     0.22000
C1001       C  0.73962737  0.11057463  0.31123339    -0.34300
C1002       C  0.74283590  0.08562810  0.32250499     0.16100
O1003       O  0.76387409  0.04780876  0.33080725    -0.26300
C1004       C  0.73997370  0.04751750  0.34131151     0.05900
C1005       C  0.72602670  0.07060446  0.33693874    -0.31200
O1006       O  0.76257053  0.14322468  0.28510158    -0.23000
C1007       C  0.78658018  0.14348094  0.27483071    -0.03000
C1008       C  0.80051339  0.12044618  0.27948665    -0.17400
H1009       H  0.80476402  0.06940449  0.30275880     0.20600
H1010       H  0.72175382  0.12182063  0.31359678     0.18900
H1011       H  0.70610542  0.07523036  0.34268101     0.18900
H1012       H  0.82042151  0.11576404  0.27378028     0.14700
C1013       C  0.26025912  0.62039966  0.20315765     0.30200
C1014       C  0.23913551  0.61160748  0.18779695    -0.36200
C1015       C  0.23983569  0.58508295  0.18036494     0.16200
C1016       C  0.25984969  0.56836886  0.18773231     0.22000
C1017       C  0.28110224  0.57722667  0.20281813    -0.34300
C1018       C  0.28048998  0.60374993  0.21009065     0.16100
O1019       O  0.26343181  0.64429595  0.21259282    -0.26300
C1020       C  0.28608742  0.64292049  0.22549902     0.05900
C1021       C  0.29761984  0.61822191  0.22460186    -0.31200
O1022       O  0.25611505  0.54415645  0.17944440    -0.23000
C1023       C  0.23352429  0.54535564  0.16640634    -0.03000
C1024       C  0.22252379  0.57036353  0.16620859    -0.17400
H1025       H  0.22318520  0.62447712  0.18222874     0.20600
H1026       H  0.29689771  0.56427611  0.20866852     0.18900
H1027       H  0.31585077  0.61192179  0.23350345     0.18900
H1028       H  0.20419189  0.57660766  0.15750022     0.14700
C1029       C  0.36038706  0.64493224  0.18322072     0.30200
C1030       C  0.38137025  0.62946098  0.17421563    -0.36200
C1031       C  0.38190947  0.62436054  0.14712266     0.16200
C1032       C  0.36307316  0.63388258  0.13013659     0.22000
C1033       C  0.34207528  0.64926367  0.13913164    -0.34300
C1034       C  0.34155890  0.65435716  0.16616492     0.16100
O1035       O  0.35591659  0.65194846  0.20774960    -0.26300
C1036       C  0.33403893  0.66613451  0.20631006     0.05900
C1037       C  0.32415294  0.66822364  0.18096486    -0.31200
O1038       O  0.36735929  0.62686234  0.10562319    -0.23000
C1039       C  0.38919948  0.61258306  0.10679801    -0.03000
C1040       C  0.39916457  0.61031489  0.13215378    -0.17400
H1041       H  0.39622152  0.62190892  0.18742469     0.20600
H1042       H  0.32718979  0.65673743  0.12596070     0.18900
H1043       H  0.30658236  0.67826424  0.17454234     0.18900
H1044       H  0.41655347  0.59992430  0.13858372     0.14700
C1045       C  0.22340191  0.65757824  0.28618153     0.30200
C1046       C  0.19697545  0.66059365  0.29289698    -0.36200
C1047       C  0.18566953  0.63973828  0.30676103     0.16200
C1048       C  0.19934220  0.61743215  0.31385860     0.22000
C1049       C  0.22584789  0.61430592  0.30694341    -0.34300
C1050       C  0.23714327  0.63514416  0.29279212     0.16100
O1051       O  0.23794206  0.67499248  0.27377441    -0.26300
C1052       C  0.26125503  0.66347386  0.27212120     0.05900
C1053       C  0.26196461  0.63864806  0.28355248    -0.31200
O1054       O  0.18463354  0.60051520  0.32697697    -0.23000
C1055       C  0.16127285  0.61219856  0.32798281    -0.03000
C1056       C  0.16086148  0.63659009  0.31573838    -0.17400
H1057       H  0.18599859  0.67805514  0.28775039     0.20600
H1058       H  0.23687412  0.59693303  0.31223524     0.18900
H1059       H  0.27856784  0.62552740  0.28539117     0.18900
H1060       H  0.14459708  0.65010645  0.31370786     0.14700
C1061       C  0.37180622  0.79810093  0.31984693     0.30200
C1062       C  0.37482801  0.77114838  0.31473477    -0.36200
C1063       C  0.35511596  0.75945772  0.29939004     0.16200
C1064       C  0.33387673  0.77330080  0.28980680     0.22000
C1065       C  0.33091338  0.80019021  0.29482916    -0.34300
C1066       C  0.35061567  0.81185996  0.31007193     0.16100
O1067       O  0.38775372  0.81307470  0.33381391    -0.26300
C1068       C  0.37659079  0.83671255  0.33287043     0.05900
C1069       C  0.35347753  0.83705737  0.31832758    -0.31200
O1070       O  0.31775384  0.75852134  0.27597731    -0.23000
C1071       C  0.32877602  0.73488153  0.27669186    -0.03000
C1072       C  0.35210204  0.73427098  0.29088172    -0.17400
H1073       H  0.39135664  0.76007733  0.32218923     0.20600
H1074       H  0.31437638  0.81125162  0.28737598     0.18900
H1075       H  0.34053504  0.85345848  0.31447335     0.18900
H1076       H  0.36488401  0.71765373  0.29435308     0.14700
C1077       C  0.24333851  0.12207123  0.35916906     0.30200
C1078       C  0.23802362  0.13020676  0.33330504    -0.36200
C1079       C  0.25803625  0.14441973  0.32064958     0.16200
C1080       C  0.28173764  0.14998004  0.33252662     0.22000
C1081       C  0.28701997  0.14191723  0.35833359    -0.34300
C1082       C  0.26695209  0.12796496  0.37104426     0.16100
O1083       O  0.22738603  0.10883987  0.37484045    -0.26300
C1084       C  0.24095002  0.10637596  0.39708491     0.05900
C1085       C  0.26568743  0.11792114  0.39578031    -0.31200
O1086       O  0.29784182  0.16305642  0.31701452    -0.23000
C1087       C  0.28423957  0.16619419  0.29492856    -0.03000
C1088       C  0.25931811  0.15499594  0.29604942    -0.17400
H1089       H  0.21955456  0.12586200  0.32376042     0.20600
H1090       H  0.30549357  0.14627024  0.36786744     0.18900
H1091       H  0.28057710  0.11888004  0.41089919     0.18900
H1092       H  0.24457734  0.15434804  0.28076957     0.14700
C1093       C  0.37578477  0.14379375  0.20205411     0.30200
C1094       C  0.38443509  0.12344608  0.18551135    -0.36200
C1095       C  0.41133364  0.12343513  0.17943277     0.16200
C1096       C  0.42843109  0.14209790  0.18911813     0.22000
C1097       C  0.41979065  0.16240429  0.20554959    -0.34300
C1098       C  0.39298754  0.16246883  0.21153227     0.16100
O1099       O  0.35152183  0.14775396  0.21019435    -0.26300
C1100       C  0.35332207  0.16928713  0.22492199     0.05900
C1101       C  0.37863006  0.17922104  0.22656733    -0.31200
O1102       O  0.45277366  0.13820274  0.18143978    -0.23000
C1103       C  0.45140554  0.11682124  0.16651736    -0.03000
C1104       C  0.42606881  0.10675504  0.16445387    -0.17400
H1105       H  0.37115635  0.10869551  0.17794117     0.20600
H1106       H  0.43308576  0.17711139  0.21319564     0.18900
H1107       H  0.38535928  0.19633413  0.23722350     0.18900
H1108       H  0.41957736  0.08949791  0.15389467     0.14700
C1109       C  0.25441826  0.25872804  0.20410049     0.30200
C1110       C  0.23321121  0.26751650  0.18878578    -0.36200
C1111       C  0.23277062  0.29451573  0.18312267     0.16200
C1112       C  0.25184621  0.31155705  0.19207675     0.22000
C1113       C  0.27299859  0.30279115  0.20729050    -0.34300
C1114       C  0.27349196  0.27588788  0.21283534     0.16100
O1115       O  0.25893867  0.23433616  0.21156800    -0.26300
C1116       C  0.28117128  0.23602278  0.22518857     0.05900
C1117       C  0.29114372  0.26135601  0.22660714    -0.31200
O1118       O  0.24775702  0.33591197  0.18455717    -0.23000
C1119       C  0.22583649  0.33461946  0.17048253    -0.03000
C1120       C  0.21554333  0.30933116  0.16885429    -0.17400
H1121       H  0.21820866  0.25423631  0.18170849     0.20600
H1122       H  0.28808769  0.31603825  0.21423228     0.18900
H1123       H  0.30887458  0.26795791  0.23625423     0.18900
H1124       H  0.19804427  0.30286109  0.15870287     0.14700
C1125       C  0.35695700  0.25730080  0.13018521     0.30200
C1126       C  0.33517127  0.24282770  0.13888229    -0.36200
C1127       C  0.33608293  0.23397333  0.16493712     0.16200
C1128       C  0.35700508  0.23899754  0.18137204     0.22000
C1129       C  0.37877045  0.25367548  0.17271575    -0.34300
C1130       C  0.37784217  0.26260928  0.14659131     0.16100
O1131       O  0.36040611  0.26672756  0.10633198    -0.26300
C1132       C  0.38374977  0.27841591  0.10732380     0.05900
C1133       C  0.39551791  0.27661333  0.13196547    -0.31200
O1134       O  0.35370198  0.22873079  0.20496884    -0.23000
C1135       C  0.33035784  0.21699690  0.20362108    -0.03000
C1136       C  0.31850204  0.21964865  0.17915495    -0.17400
H1137       H  0.31872980  0.23858243  0.12612683     0.20600
H1138       H  0.39531739  0.25771915  0.18541702     0.18900
H1139       H  0.41453238  0.28392559  0.13799426     0.18900
H1140       H  0.29961470  0.21223114  0.17289543     0.14700
C1141       C  0.37353877  0.08389348  0.31847764     0.30200
C1142       C  0.37827574  0.10975706  0.30997650    -0.36200
C1143       C  0.35834884  0.12136435  0.29480568     0.16200
C1144       C  0.33528250  0.10849961  0.28872557     0.22000
C1145       C  0.33056978  0.08276397  0.29718521    -0.34300
C1146       C  0.35051845  0.07113010  0.31207814     0.16100
O1147       O  0.38956090  0.06895241  0.33242809    -0.26300
C1148       C  0.37656916  0.04634902  0.33481579     0.05900
C1149       C  0.35217472  0.04669282  0.32258285    -0.31200
O1150       O  0.31893142  0.12321432  0.27515596    -0.23000
C1151       C  0.33173194  0.14577140  0.27218784    -0.03000
C1152       C  0.35638296  0.14579948  0.28397647    -0.17400
H1153       H  0.39622175  0.12005833  0.31476938     0.20600
H1154       H  0.31255672  0.07251916  0.29250059     0.18900
H1155       H  0.33780870  0.03108598  0.32131157     0.18900
H1156       H  0.37028279  0.16182086  0.28522323     0.14700
C1157       C  0.88985741  0.23385441  0.27611990     0.30200
C1158       C  0.91504462  0.24341741  0.27076308    -0.36200
C1159       C  0.92702812  0.25760538  0.29100968     0.16200
C1160       C  0.91503455  0.26234170  0.31485388     0.22000
C1161       C  0.88977162  0.25274258  0.32022877    -0.34300
C1162       C  0.87785874  0.23828473  0.30002976     0.16100
O1163       O  0.87499368  0.22038085  0.25984396    -0.26300
C1164       C  0.85327774  0.21587731  0.27356909     0.05900
C1165       C  0.85389561  0.22655237  0.29869934    -0.31200
O1166       O  0.93014647  0.27578770  0.33104839    -0.23000
C1167       C  0.95209549  0.27950707  0.31737386    -0.03000
C1168       C  0.95121446  0.26866290  0.29234458    -0.17400
H1169       H  0.92467111  0.23994313  0.25213555     0.20600
H1170       H  0.88016093  0.25615143  0.33888063     0.18900
H1171       H  0.83861421  0.22629511  0.31346705     0.18900
H1172       H  0.96633123  0.26860378  0.27741743     0.14700
C1173       C  0.19761104  0.25625487  0.31660228     0.30200
C1174       C  0.22358900  0.24796713  0.32077315    -0.36200
C1175       C  0.23525018  0.23389406  0.30009769     0.16200
C1176       C  0.22229148  0.22847499  0.27691580     0.22000
C1177       C  0.19636722  0.23660119  0.27282419    -0.34300
C1178       C  0.18472007  0.25053755  0.29346728     0.16100
O1179       O  0.18286068  0.26983948  0.33308918    -0.26300
C1180       C  0.16024323  0.27270473  0.32028679     0.05900
C1181       C  0.16035599  0.26106915  0.29557644    -0.31200
O1182       O  0.23709524  0.21584955  0.25987996    -0.23000
C1183       C  0.25983219  0.21294336  0.27231428    -0.03000
C1184       C  0.25984819  0.22374758  0.29743247    -0.17400
H1185       H  0.23402038  0.25232821  0.33875246     0.20600
H1186       H  0.18606106  0.23253970  0.25469203     0.18900
H1187       H  0.14476994  0.26048836  0.28115972     0.18900
H1188       H  0.27588569  0.22455912  0.31133358     0.14700
C1189       C  0.41898756  0.76104474  0.81393009     0.30200
C1190       C  0.39377271  0.75124263  0.81941712    -0.36200
C1191       C  0.38126867  0.73772214  0.79886250     0.16200
C1192       C  0.39267423  0.73433260  0.77451512     0.22000
C1193       C  0.41787932  0.74399666  0.76907876    -0.34300
C1194       C  0.43046468  0.75724803  0.78967884     0.16100
O1195       O  0.43439380  0.77405059  0.83027912    -0.26300
C1196       C  0.45608765  0.77842668  0.81634102     0.05900
C1197       C  0.45471065  0.76837366  0.79096799    -0.31200
O1198       O  0.37733489  0.72159527  0.75799704    -0.23000
C1199       C  0.35586640  0.71645629  0.77197474    -0.03000
C1200       C  0.35719907  0.72606032  0.79755257    -0.17400
H1201       H  0.38457809  0.75390626  0.83838928     0.20600
H1202       H  0.42706735  0.74132069  0.75010225     0.18900
H1203       H  0.46948115  0.76907102  0.77570795     0.18900
H1204       H  0.34235654  0.72502674  0.81272271     0.14700
C1205       C  0.68898144  0.75492554  0.79540593     0.30200
C1206       C  0.69772460  0.73882774  0.77489396    -0.36200
C1207       C  0.72434609  0.73215367  0.77537321     0.16200
C1208       C  0.74126954  0.74061818  0.79477386     0.22000
C1209       C  0.73249853  0.75675107  0.81537261    -0.34300
C1210       C  0.70579260  0.76354988  0.81483030     0.16100
O1211       O  0.66487106  0.76357670  0.79858307    -0.26300
C1212       C  0.66610352  0.77801229  0.82029760     0.05900
C1213       C  0.69109952  0.77874669  0.83132473    -0.31200
O1214       O  0.76543063  0.73206179  0.79115848    -0.23000
C1215       C  0.76381849  0.71802121  0.76917099    -0.03000
C1216       C  0.73878776  0.71740476  0.75847225    -0.17400
H1217       H  0.68468009  0.73208535  0.75954206     0.20600
H1218       H  0.74558228  0.76360149  0.83064965     0.18900
H1219       H  0.69746416  0.78889696  0.84887711     0.18900
H1220       H  0.73231732  0.70760277  0.74077056     0.14700
C1221       C  0.25872330  0.26437654  0.79390153     0.30200
C1222       C  0.23685592  0.27306130  0.80830085    -0.36200
C1223       C  0.23711531  0.29957611  0.81589729     0.16200
C1224       C  0.25744738  0.31634829  0.80958381     0.22000
C1225       C  0.27930839  0.30766935  0.79527658    -0.34300
C1226       C  0.27909788  0.28118632  0.78781700     0.16100
O1227       O  0.26277434  0.24032747  0.78514682    -0.26300
C1228       C  0.28606353  0.24179141  0.77339539     0.05900
C1229       C  0.29713887  0.26672920  0.77443207    -0.31200
O1230       O  0.25373277  0.34029753  0.81859202    -0.23000
C1231       C  0.23078479  0.33894297  0.83098972    -0.03000
C1232       C  0.21949106  0.31405826  0.82998978    -0.17400
H1233       H  0.22084429  0.26001829  0.81335359     0.20600
H1234       H  0.29542337  0.32063967  0.79042418     0.18900
H1235       H  0.31587928  0.27308926  0.76671472     0.18900
H1236       H  0.20104137  0.30762472  0.83834201     0.14700
C1237       C  0.26039797  0.62326288  0.79676004     0.30200
C1238       C  0.23919235  0.61465709  0.81222375    -0.36200
C1239       C  0.23941197  0.58800982  0.81945570     0.16200
C1240       C  0.25909385  0.57103371  0.81183843     0.22000
C1241       C  0.28035782  0.57966172  0.79656323    -0.34300
C1242       C  0.28021242  0.60628227  0.78947875     0.16100
O1243       O  0.26414157  0.64729576  0.78772648    -0.26300
C1244       C  0.28673320  0.64567642  0.77467310     0.05900
C1245       C  0.29764631  0.62065612  0.77513299    -0.31200
O1246       O  0.25528007  0.54690569  0.82043200    -0.23000
C1247       C  0.23292221  0.54833597  0.83388788    -0.03000
C1248       C  0.22214685  0.57347629  0.83400208    -0.17400
H1249       H  0.22359467  0.62781009  0.81815948     0.20600
H1250       H  0.29593647  0.56651020  0.79060405     0.18900
H1251       H  0.31576182  0.61412140  0.76617707     0.18900
H1252       H  0.20415567  0.58001101  0.84321832     0.14700
C1253       C  0.70116044  0.11686937  0.81634570     0.30200
C1254       C  0.72764697  0.12345321  0.82039438    -0.36200
C1255       C  0.73929987  0.13923212  0.80096711     0.16200
C1256       C  0.72584664  0.14777866  0.77903938     0.22000
C1257       C  0.69947827  0.14116771  0.77498034    -0.34300
C1258       C  0.68782997  0.12556538  0.79441475     0.16100
O1259       O  0.68612603  0.10282583  0.83217752    -0.26300
C1260       C  0.66289533  0.10264489  0.82018574     0.05900
C1261       C  0.66288074  0.11644477  0.79660612    -0.31200
O1262       O  0.74046762  0.16220209  0.76331089    -0.23000
C1263       C  0.76356850  0.16316518  0.77538049    -0.03000
C1264       C  0.76409894  0.14907833  0.79881273    -0.17400
H1265       H  0.73834515  0.11690988  0.83754461     0.20600
H1266       H  0.68873564  0.14786440  0.75791039     0.18900
H1267       H  0.64673913  0.11963772  0.78317338     0.18900
H1268       H  0.78046116  0.14625979  0.81205927     0.14700
C1269       C  0.38085642  0.15416078  0.80062941     0.30200
C1270       C  0.38926951  0.13958239  0.82253969    -0.36200
C1271       C  0.41523067  0.13031332  0.82168151     0.16200
C1272       C  0.43172561  0.13528324  0.80076495     0.22000
C1273       C  0.42329774  0.14971675  0.77886483    -0.34300
C1274       C  0.39737043  0.15880629  0.77965386     0.16100
O1275       O  0.35724945  0.16416330  0.79696247    -0.26300
C1276       C  0.35867957  0.17521135  0.77328765     0.05900
C1277       C  0.38318983  0.17252905  0.76161649    -0.31200
O1278       O  0.45520865  0.12502015  0.80401492    -0.23000
C1279       C  0.45386336  0.11312669  0.82724927    -0.03000
C1280       C  0.42940201  0.11568767  0.83918971    -0.17400
H1281       H  0.37642116  0.13559185  0.83899187     0.20600
H1282       H  0.43604193  0.15345708  0.76228389     0.18900
H1283       H  0.38941041  0.17927057  0.74244821     0.18900
H1284       H  0.42309936  0.10812474  0.85803053     0.14700
C1285       C  0.84888894  0.62276234  0.79884544     0.30200
C1286       C  0.86120040  0.61329312  0.82166193    -0.36200
C1287       C  0.86978931  0.58709637  0.82074638     0.16200
C1288       C  0.86612229  0.57133875  0.79899685     0.22000
C1289       C  0.85389137  0.58078747  0.77626581    -0.34300
C1290       C  0.84561960  0.60695571  0.77707714     0.16100
O1291       O  0.83981712  0.64673033  0.79506139    -0.26300
C1292       C  0.83091720  0.64621915  0.77047915     0.05900
C1293       C  0.83385602  0.62193439  0.75841765    -0.31200
O1294       O  0.87541288  0.54748486  0.80231029    -0.23000
C1295       C  0.88543419  0.54788346  0.82639137    -0.03000
C1296       C  0.88259686  0.57204075  0.83887702    -0.17400
H1297       H  0.86410770  0.62554423  0.83877618     0.20600
H1298       H  0.85119563  0.56861708  0.75905976     0.18900
H1299       H  0.82824994  0.61626426  0.73872260     0.18900
H1300       H  0.88878816  0.57756174  0.85843596     0.14700
C1301       C  0.84817361  0.26140069  0.80220778     0.30200
C1302       C  0.86201557  0.27132068  0.82392279    -0.36200
C1303       C  0.87027997  0.29758447  0.82203218     0.16200
C1304       C  0.86498157  0.31303394  0.80039043     0.22000
C1305       C  0.85125070  0.30311455  0.77870318    -0.34300
C1306       C  0.84321589  0.27686662  0.78049943     0.16100
O1307       O  0.83934368  0.23719147  0.79934241    -0.26300
C1308       C  0.82881027  0.23717904  0.77541057     0.05900
C1309       C  0.83050226  0.26138051  0.76286499    -0.31200
O1310       O  0.87425677  0.33705922  0.80278278    -0.23000
C1311       C  0.88588872  0.33704944  0.82615878    -0.03000
C1312       C  0.88413229  0.31298409  0.83904774    -0.17400
H1313       H  0.86629526  0.25932684  0.84094428     0.20600
H1314       H  0.84728755  0.31499171  0.76152574     0.18900
H1315       H  0.82386611  0.26654272  0.74334801     0.18900
H1316       H  0.89164928  0.30773817  0.85822181     0.14700
C1317       C  0.87207208  0.30105907  0.18433945     0.30200
C1318       C  0.86414081  0.27502574  0.17989862    -0.36200
C1319       C  0.85001476  0.26302820  0.20030616     0.16200
C1320       C  0.84427518  0.27567630  0.22358767     0.22000
C1321       C  0.85202314  0.30173705  0.22795681    -0.34300
C1322       C  0.86596620  0.31377434  0.20748091     0.16100
O1323       O  0.88572752  0.31598170  0.16808699    -0.26300
C1324       C  0.88826611  0.33858156  0.18097299     0.05900
C1325       C  0.87630048  0.33831177  0.20555077    -0.31200
O1326       O  0.83176139  0.26043147  0.24036926    -0.23000
C1327       C  0.82917142  0.23782452  0.22753502    -0.03000
C1328       C  0.84014565  0.23827404  0.20253933    -0.17400
H1329       H  0.86881412  0.26477833  0.16187743     0.20600
H1330       H  0.84770052  0.31184119  0.24614457     0.18900
H1331       H  0.87550033  0.35385512  0.22001626     0.18900
H1332       H  0.84130776  0.22239881  0.18845911     0.14700
C1333       C  0.87631149  0.58381987  0.18565536     0.30200
C1334       C  0.86748067  0.60950449  0.18072748    -0.36200
C1335       C  0.85263140  0.62122752  0.20080116     0.16200
C1336       C  0.84707935  0.60862571  0.22416714     0.22000
C1337       C  0.85577489  0.58298950  0.22902808    -0.34300
C1338       C  0.87041094  0.57124136  0.20893629     0.16100
O1339       O  0.89033183  0.56896836  0.16965067    -0.26300
C1340       C  0.89327694  0.54658877  0.18288544     0.05900
C1341       C  0.88129146  0.54695391  0.20742522    -0.31200
O1342       O  0.83370179  0.62346758  0.24057435    -0.23000
C1343       C  0.83036938  0.64582506  0.22749881    -0.03000
C1344       C  0.84169586  0.64559027  0.20262230    -0.17400
H1345       H  0.87190012  0.61963709  0.16257341     0.20600
H1346       H  0.85151979  0.57293658  0.24727436     0.18900
H1347       H  0.88055371  0.53150788  0.22201880     0.18900
H1348       H  0.84240757  0.66136088  0.18838657     0.14700
C1349       C  0.69801263  0.75953085  0.18402230     0.30200
C1350       C  0.72349414  0.76444955  0.19334072    -0.36200
C1351       C  0.73574856  0.74357333  0.20657513     0.16200
C1352       C  0.72384049  0.71947898  0.21018731     0.22000
C1353       C  0.69838970  0.71460926  0.20100289    -0.34300
C1354       C  0.68609366  0.73550187  0.18799344     0.16100
O1355       O  0.68275508  0.77621588  0.17128774    -0.26300
C1356       C  0.66075859  0.76267407  0.16727145     0.05900
C1357       C  0.66177231  0.73726005  0.17725396    -0.31200
O1358       O  0.73905781  0.70254119  0.22246677    -0.23000
C1359       C  0.76097336  0.71598143  0.22702875    -0.03000
C1360       C  0.76004763  0.74163175  0.21756159    -0.17400
H1361       H  0.73308657  0.78320435  0.19047795     0.20600
H1362       H  0.68884449  0.69581530  0.20378321     0.18900
H1363       H  0.64672026  0.72226693  0.17677593     0.18900
H1364       H  0.77532353  0.75640115  0.21813353     0.14700
C1365       C  0.42934318  0.73973660  0.19391747     0.30200
C1366       C  0.42053221  0.71862466  0.20927131    -0.36200
C1367       C  0.39418293  0.71958057  0.21705078     0.16200
C1368       C  0.37763515  0.73996091  0.21030853     0.22000
C1369       C  0.38650229  0.76116296  0.19504750    -0.34300
C1370       C  0.41284876  0.76012801  0.18709691     0.16100
O1371       O  0.45311885  0.74258917  0.18419740    -0.26300
C1372       C  0.45189275  0.76505110  0.17087855     0.05900
C1373       C  0.42729672  0.77685654  0.17194800    -0.31200
O1374       O  0.35346350  0.73625588  0.21878525    -0.23000
C1375       C  0.35458149  0.71316249  0.23097452    -0.03000
C1376       C  0.37945763  0.70199823  0.23075037    -0.17400
H1377       H  0.43322622  0.70239252  0.21443878     0.20600
H1378       H  0.37363759  0.77709428  0.18937332     0.18900
H1379       H  0.42102418  0.79507911  0.16297095     0.18900
H1380       H  0.38556037  0.68333966  0.23888936     0.14700
C1381       C  0.83454988  0.73415624  0.33303660     0.30200
C1382       C  0.82966961  0.74461795  0.35798874    -0.36200
C1383       C  0.85023392  0.75894883  0.36930326     0.16200
C1384       C  0.87400928  0.76297729  0.35696058     0.22000
C1385       C  0.87895136  0.75237328  0.33194173    -0.34300
C1386       C  0.85838476  0.73780169  0.32066229     0.16100
O1387       O  0.81768124  0.72091960  0.31856297    -0.26300
C1388       C  0.83090233  0.71572664  0.29666350     0.05900
C1389       C  0.85636615  0.72568607  0.29687051    -0.31200
O1390       O  0.89040468  0.77706394  0.37138674    -0.23000
C1391       C  0.87689451  0.78192230  0.39326727    -0.03000
C1392       C  0.85180949  0.77113086  0.39294549    -0.17400
H1393       H  0.81104509  0.74190765  0.36784531     0.20600
H1394       H  0.89747070  0.75532506  0.32194781     0.18900
H1395       H  0.87080846  0.72501048  0.28129558     0.18900
H1396       H  0.83689433  0.77195081  0.40805220     0.14700
C1397       C  0.87314528  0.76091202  0.63708232     0.30200
C1398       C  0.87786233  0.75172689  0.66267919    -0.36200
C1399       C  0.85800457  0.73615803  0.67384795     0.16200
C1400       C  0.83500427  0.73021565  0.66082277     0.22000
C1401       C  0.83032996  0.73929734  0.63525212    -0.34300
C1402       C  0.85023161  0.75468562  0.62404800     0.16100
O1403       O  0.88898159  0.77574207  0.62280790    -0.26300
C1404       C  0.87604379  0.77891705  0.60030381     0.05900
C1405       C  0.85182900  0.76624822  0.60003750    -0.31200
O1406       O  0.81858888  0.71644766  0.67536905    -0.23000
C1407       C  0.83129097  0.71330363  0.69796708    -0.03000
C1408       C  0.85593304  0.72510175  0.69813828    -0.17400
H1409       H  0.89567944  0.75651686  0.67321259     0.20600
H1410       H  0.81231370  0.73487859  0.62490052     0.18900
H1411       H  0.83747723  0.76557268  0.58439623     0.18900
H1412       H  0.86972630  0.72633194  0.71425371     0.14700
C1413       C  0.85631109  0.14653236  0.68136403     0.30200
C1414       C  0.87567240  0.12886371  0.67279603    -0.36200
C1415       C  0.87803286  0.12575573  0.64550962     0.16200
C1416       C  0.86238415  0.13911396  0.62788359     0.22000
C1417       C  0.84315602  0.15693524  0.63643527    -0.34300
C1418       C  0.84080944  0.16005127  0.66371194     0.16100
O1419       O  0.85041870  0.15202961  0.70598127    -0.26300
C1420       C  0.83091738  0.16929301  0.70405391     0.05900
C1421       C  0.82417094  0.17515385  0.67826085    -0.31200
O1422       O  0.86752340  0.13279008  0.60330586    -0.23000
C1423       C  0.88677265  0.11519184  0.60514134    -0.03000
C1424       C  0.89417489  0.11008999  0.63094976    -0.17400
H1425       H  0.88787200  0.11810207  0.68646549     0.20600
H1426       H  0.83072736  0.16744125  0.62277975     0.18900
H1427       H  0.80906954  0.18839820  0.67134771     0.18900
H1428       H  0.90899376  0.09657756  0.63796081     0.14700
C1429       C  0.85999931  0.14590167  0.31850629     0.30200
C1430       C  0.88101425  0.13026686  0.32723348    -0.36200
C1431       C  0.88089437  0.12372785  0.35404835     0.16200
C1432       C  0.86146378  0.13212188  0.37096631     0.22000
C1433       C  0.84045096  0.14752683  0.36223453    -0.34300
C1434       C  0.84052956  0.15397014  0.33554404     0.16100
O1435       O  0.85593459  0.15418488  0.29428110    -0.26300
C1436       C  0.83354877  0.16756536  0.29599041     0.05900
C1437       C  0.82308463  0.16808272  0.32113446    -0.31200
O1438       O  0.86531788  0.12426549  0.39525407    -0.23000
C1439       C  0.88745801  0.11053672  0.39405472    -0.03000
C1440       C  0.89807567  0.10941033  0.36887229    -0.17400
H1441       H  0.89634389  0.12370124  0.31407908     0.20600
H1442       H  0.82509353  0.15406713  0.37538563     0.18900
H1443       H  0.80504300  0.17721575  0.32764835     0.18900
H1444       H  0.91595546  0.09985864  0.36254422     0.14700
C1445       C  0.24127149  0.75707947  0.64067611     0.30200
C1446       C  0.24912155  0.76141321  0.66677103    -0.36200
C1447       C  0.26324715  0.74094901  0.67873319     0.16200
C1448       C  0.26901663  0.71771110  0.66601831     0.22000
C1449       C  0.26127156  0.71343152  0.63994997    -0.34300
C1450       C  0.24740819  0.73396473  0.62792038     0.16100
O1451       O  0.22786116  0.77347173  0.62565685    -0.26300
C1452       C  0.22555440  0.76069923  0.60294833     0.05900
C1453       C  0.23741038  0.73607576  0.60327236    -0.31200
O1454       O  0.28204070  0.70108412  0.68102195    -0.23000
C1455       C  0.28492762  0.71393786  0.70357745    -0.03000
C1456       C  0.27358187  0.73880805  0.70331473    -0.17400
H1457       H  0.24457632  0.77945484  0.67700993     0.20600
H1458       H  0.26576463  0.69531604  0.62972294     0.18900
H1459       H  0.23835314  0.72164066  0.58763406     0.18900
H1460       H  0.27278527  0.75300949  0.71909464     0.14700
C1461       C  0.26145806  0.71428632  0.33195886     0.30200
C1462       C  0.25280469  0.70947963  0.35766217    -0.36200
C1463       C  0.23741381  0.72923035  0.36912255     0.16200
C1464       C  0.23071945  0.75208795  0.35617819     0.22000
C1465       C  0.23917328  0.75677360  0.33031446    -0.34300
C1466       C  0.25482914  0.73711319  0.31892166     0.16100
O1467       O  0.27635776  0.69863342  0.31769751    -0.26300
C1468       C  0.27959864  0.71169550  0.29528420     0.05900
C1469       C  0.26644578  0.73565391  0.29483995    -0.31200
O1470       O  0.21701643  0.76831378  0.37111537    -0.23000
C1471       C  0.21499951  0.75566908  0.39393864    -0.03000
C1472       C  0.22723234  0.73121499  0.39372143    -0.17400
H1473       H  0.25807401  0.69176126  0.36815903     0.20600
H1474       H  0.23431175  0.77470788  0.31997603     0.18900
H1475       H  0.26525306  0.74968258  0.27890804     0.18900
H1476       H  0.22901157  0.71720161  0.40960216     0.14700
loop_ 
_geom_bond_atom_site_label_1 
_geom_bond_atom_site_label_2 
_geom_bond_distance 
_geom_bond_site_symmetry_2 
_ccdc_geom_bond_type 
N1            N2   1.321       .  A
N1            C5   1.342       .  A
N1           Cu9   2.062       .  S
N2            C3   1.351       .  A
N2           Cu8   2.092       .  S
C3            C4   1.389       .  A
C3            H6   1.082       .  S
C4            C5   1.382       .  A
C4         C1471   1.477       .  S
C5            H7   1.082       .  S
Cu8          N11   2.094       .  S
Cu9          N19   2.062       .  S
Cu10         N12   2.091       .  S
Cu10         N18   2.089       .  S
N11          N12   1.326       .  A
N11          C15   1.347       .  A
N12          C13   1.348       .  A
C13          C14   1.384       .  A
C13          H16   1.082       .  S
C14          C15   1.384       .  A
C14         C638   1.476       .  S
C15          H17   1.082       .  S
N18          N19   1.321       .  A
N18          C22   1.350       .  A
N19          C20   1.342       .  A
C20          C21   1.381       .  A
C20          H23   1.081       .  S
C21          C22   1.388       .  A
C21        C1452   1.476       .  S
C22          H24   1.082       .  S
N25          N26   1.321       .  A
N25          C29   1.341       .  A
N25         Cu33   2.062       .  S
N26          C27   1.349       .  A
N26         Cu32   2.079       .  S
C27          C28   1.387       .  A
C27          H30   1.082       .  S
C28          C29   1.379       .  A
C28        C1439   1.470       .  S
C29          H31   1.082       .  S
Cu32         N35   2.081       .  S
Cu33         N43   2.062       .  S
Cu34         N36   2.093       .  S
Cu34         N42   2.092       .  S
N35          N36   1.325       .  A
N35          C39   1.346       .  A
N36          C37   1.347       .  A
C37          C38   1.385   1_655  A
C37          H40   1.082       .  S
C38          C39   1.382   1_455  A
C38         C637   1.473   1_545  S
C39          H41   1.082       .  S
N42          N43   1.321       .  A
N42          C46   1.350       .  A
N43          C44   1.343       .  A
C44          C45   1.380       .  A
C44          H47   1.082       .  S
C45          C46   1.389       .  A
C45        C1423   1.475       .  S
C46          H48   1.082       .  S
N49          N50   1.321       .  A
N49          C53   1.340       .  A
N49         Cu57   2.059       .  S
N50          C51   1.352       .  A
N50         Cu56   2.094       .  S
C51          C52   1.390       .  A
C51          H54   1.082       .  S
C52          C53   1.381       .  A
C52        C1391   1.477       .  S
C53          H55   1.082       .  S
Cu56         N59   2.096       .  S
Cu57         N67   2.060       .  S
Cu58         N60   2.093       .  S
Cu58         N66   2.091       .  S
N59          N60   1.326       .  A
N59          C63   1.348       .  A
N60          C61   1.348       .  A
C61          C62   1.384   1_655  A
C61          H64   1.082       .  S
C62          C63   1.385   1_455  A
C62         C635   1.478       .  S
C63          H65   1.082       .  S
N66          N67   1.321       .  A
N66          C70   1.351       .  A
N67          C68   1.342       .  A
C68          C69   1.381       .  A
C68          H71   1.082       .  S
C69          C70   1.389       .  A
C69        C1404   1.476       .  S
C70          H72   1.082       .  S
N73          N74   1.321       .  A
N73          C77   1.341       .  A
N73         Cu81   2.058       .  S
N74          C75   1.349       .  A
N74         Cu80   2.088       .  S
C75          C76   1.388       .  A
C75          H78   1.082       .  S
C76          C77   1.378       .  A
C76        C1372   1.471       .  S
C77          H79   1.082       .  S
Cu80         N83   2.090       .  S
Cu81         N91   2.058       .  S
Cu82         N84   2.083       .  S
Cu82         N90   2.083       .  S
N83          N84   1.325       .  A
N83          C87   1.347       .  A
N84          C85   1.346       .  A
C85          C86   1.382       .  A
C85          H88   1.082       .  S
C86          C87   1.385       .  A
C86         C650   1.473       .  S
C87          H89   1.082       .  S
N90          N91   1.321       .  A
N90          C94   1.349       .  A
N91          C92   1.341       .  A
C92          C93   1.381       .  A
C92          H95   1.082       .  S
C93          C94   1.387       .  A
C93        C1356   1.472       .  S
C94          H96   1.082       .  S
N97          N98   1.321       .  A
N97         C101   1.341       .  A
N97        Cu105   2.058       .  S
N98          C99   1.350       .  A
N98        Cu104   2.090       .  S
C99         C100   1.388       .  A
C99         H102   1.082       .  S
C100        C101   1.380       .  A
C100       C1324   1.474       .  S
C101        H103   1.081       .  S
Cu104       N107   2.092       .  S
Cu105       N115   2.058       .  S
Cu106       N108   2.086       .  S
Cu106       N114   2.084       .  S
N107        N108   1.326       .  A
N107        C111   1.348       .  A
N108        C109   1.346       .  A
C109        C110   1.383       .  A
C109        H112   1.082       .  S
C110        C111   1.385       .  A
C110        C665   1.474   1_655  S
C111        H113   1.082       .  S
N114        N115   1.320       .  A
N114        C118   1.350       .  A
N115        C116   1.341       .  A
C116        C117   1.381       .  A
C116        H119   1.081       .  S
C117        C118   1.387       .  A
C117       C1340   1.473       .  S
C118        H120   1.082       .  S
N121        N122   1.322       .  A
N121        C125   1.341       .  A
N121       Cu129   2.063       .  S
N122        C123   1.349       .  A
N122       Cu128   2.080       .  S
C123        C124   1.386       .  A
C123        H126   1.082       .  S
C124        C125   1.378       .  A
C124       C1295   1.468       .  S
C125        H127   1.082       .  S
Cu128       N131   2.081       .  S
Cu129       N139   2.063       .  S
Cu130       N132   2.083       .  S
Cu130       N138   2.082       .  S
N131        N132   1.325       .  A
N131        C135   1.346       .  A
N132        C133   1.346       .  A
C133        C134   1.383       .  A
C133        H136   1.082       .  S
C134        C135   1.383       .  A
C134        C663   1.471   1_655  S
C135        H137   1.082       .  S
N138        N139   1.321       .  A
N138        C142   1.349       .  A
N139        C140   1.343       .  A
C140        C141   1.380       .  A
C140        H143   1.082       .  S
C141        C142   1.387       .  A
C141       C1311   1.472       .  S
C142        H144   1.082       .  S
N145        N146   1.321       .  A
N145        C149   1.341       .  A
N145       Cu153   2.062       .  S
N146        C147   1.352       .  A
N146       Cu152   2.092       .  S
C147        C148   1.390       .  A
C147        H150   1.082       .  S
C148        C149   1.379       .  A
C148       C1279   1.474       .  S
C149        H151   1.082       .  S
Cu152       N155   2.094       .  S
Cu153       N163   2.063       .  S
Cu154       N156   2.082       .  S
Cu154       N162   2.080       .  S
N155        N156   1.326       .  A
N155        C159   1.347       .  A
N156        C157   1.347       .  A
C157        C158   1.382   1_545  A
C157        H160   1.082       .  S
C158        C159   1.384   1_565  A
C158        C649   1.473       .  S
C159        H161   1.082       .  S
N162        N163   1.321       .  A
N162        C166   1.349       .  A
N163        C164   1.342       .  A
C164        C165   1.382       .  A
C164        H167   1.082       .  S
C165        C166   1.386       .  A
C165       C1260   1.473       .  S
C166        H168   1.082       .  S
N169        N170   1.321       .  A
N169        C173   1.341       .  A
N169       Cu177   2.061       .  S
N170        C171   1.350       .  A
N170       Cu176   2.089       .  S
C171        C172   1.389       .  A
C171        H174   1.081       .  S
C172        C173   1.379       .  A
C172       C1231   1.473       .  S
C173        H175   1.082       .  S
Cu176       N179   2.090       .  S
Cu177       N187   2.062       .  S
Cu178       N180   2.095       .  S
Cu178       N186   2.094       .  S
N179        N180   1.326       .  A
N179        C183   1.347       .  A
N180        C181   1.348       .  A
C181        C182   1.385       .  A
C181        H184   1.082       .  S
C182        C183   1.384       .  A
C182        C666   1.476       .  S
C183        H185   1.082       .  S
N186        N187   1.321       .  A
N186        C190   1.351       .  A
N187        C188   1.342       .  A
C188        C189   1.380       .  A
C188        H191   1.082       .  S
C189        C190   1.390       .  A
C189       C1247   1.476       .  S
C190        H192   1.082       .  S
N193        N194   1.322       .  A
N193        C197   1.342       .  A
N193       Cu201   2.065       .  S
N194        C195   1.350       .  A
N194       Cu200   2.085       .  S
C195        C196   1.387       .  A
C195        H198   1.081       .  S
C196        C197   1.379       .  A
C196       C1212   1.471       .  S
C197        H199   1.082       .  S
Cu200       N203   2.088       .  S
Cu201       N211   2.065       .  S
Cu202       N204   2.091       .  S
Cu202       N210   2.090       .  S
N203        N204   1.325       .  A
N203        C207   1.347       .  A
N204        C205   1.348       .  A
C205        C206   1.384       .  A
C205        H208   1.082       .  S
C206        C207   1.385       .  A
C206        C651   1.476       .  S
C207        H209   1.082       .  S
N210        N211   1.321       .  A
N210        C214   1.350       .  A
N211        C212   1.343       .  A
C212        C213   1.382       .  A
C212        H215   1.082       .  S
C213        C214   1.387       .  A
C213       C1196   1.476       .  S
C214        H216   1.082       .  S
N217        N218   1.321       .  A
N217        C221   1.341       .  A
N217       Cu225   2.057       .  S
N218        C219   1.350       .  A
N218       Cu224   2.089       .  S
C219        C220   1.388       .  A
C219        H222   1.082       .  S
C220        C221   1.381       .  A
C220       C1180   1.474       .  S
C221        H223   1.081       .  S
Cu224       N227   2.090       .  S
Cu225       N235   2.057       .  S
Cu226       N228   2.079       .  S
Cu226       N234   2.077       .  S
N227        N228   1.325       .  A
N227        C231   1.347       .  A
N228        C229   1.346       .  A
C229        C230   1.382       .  A
C229        H232   1.082       .  S
C230        C231   1.384       .  A
C230        C691   1.473       .  S
C231        H233   1.082       .  S
N234        N235   1.321       .  A
N234        C238   1.348   1_455  A
N235        C236   1.341       .  A
C236        C237   1.380   1_455  A
C236        H239   1.082       .  S
C237        C238   1.385       .  A
C237       C1167   1.469       .  S
C238        H240   1.082       .  S
C241        C242   1.416       .  A
C241        C246   1.414       .  A
C241       C1135   1.490       .  S
C242        C243   1.416       .  A
C242       C1116   1.480       .  S
C243        C244   1.414       .  A
C243       C1183   1.483       .  S
C244        C245   1.415       .  A
C244       C1087   1.489       .  S
C245        C246   1.415       .  A
C245       C1151   1.482       .  S
C246       C1100   1.479       .  S
N247        N248   1.321       .  A
N247        C251   1.341       .  A
N247       Cu255   2.060       .  S
N248        C249   1.350   1_565  A
N248       Cu254   2.087       .  S
C249        C250   1.388       .  A
C249        H252   1.082       .  S
C250        C251   1.382   1_545  A
C250       C1148   1.475       .  S
C251        H253   1.082       .  S
Cu254       N257   2.088       .  S
Cu255       N265   2.061       .  S
Cu256       N258   2.091       .  S
Cu256       N264   2.089       .  S
N257        N258   1.325       .  A
N257        C261   1.347       .  A
N258        C259   1.348       .  A
C259        C260   1.385       .  A
C259        H262   1.082       .  S
C260        C261   1.383       .  A
C260        C707   1.475       .  S
C261        H263   1.082       .  S
N264        N265   1.321       .  A
N264        C268   1.350       .  A
N265        C266   1.341       .  A
C266        C267   1.381       .  A
C266        H269   1.081       .  S
C267        C268   1.388       .  A
C267       C1068   1.475       .  S
C268        H270   1.082       .  S
C271        C272   1.416       .  A
C271        C276   1.415       .  A
C271       C1071   1.481       .  S
C272        C273   1.414       .  A
C272       C1468   1.486       .  S
C273        C274   1.410       .  A
C273       C1052   1.479       .  S
C274        C275   1.410       .  A
C274       C1020   1.480       .  S
C275        C276   1.414       .  A
C275       C1036   1.482       .  S
C276       C1375   1.480       .  S
C277        C278   1.413       .  A
C277        C282   1.417       .  A
C277        C975   1.483       .  S
C278        C279   1.415       .  A
C278       C1007   1.483       .  S
C279        C280   1.410       .  A
C279       C1436   1.479       .  S
C280        C281   1.412       .  A
C280       C1164   1.479       .  S
C281        C282   1.414       .  A
C281       C1327   1.482       .  S
C282        C991   1.483       .  S
N283        N284   1.322       .  A
N283        C287   1.343       .  A
N283       Cu291   2.069       .  S
N284        C285   1.348       .  A
N284       Cu290   2.080       .  S
C285        C286   1.386       .  A
C285        H288   1.082       .  S
C286        C287   1.381       .  A
C286        C959   1.471       .  S
C287        H289   1.082       .  S
Cu290       N293   2.081       .  S
Cu291       N301   2.069       .  S
Cu292       N294   2.079       .  S
Cu292       N300   2.078       .  S
N293        N294   1.324       .  A
N293        C297   1.347       .  A
N294        C295   1.345       .  A
C295        C296   1.383       .  A
C295        H298   1.082       .  S
C296        C297   1.384       .  A
C296        C705   1.472       .  S
C297        H299   1.082       .  S
N300        N301   1.322       .  A
N300        C304   1.347   1_565  A
N301        C302   1.343       .  A
C302        C303   1.381   1_565  A
C302        H305   1.082       .  S
C303        C304   1.385       .  A
C303       C1004   1.470       .  S
C304        H306   1.082       .  S
C307        C308   1.412       .  A
C307        C312   1.414       .  A
C307       C1343   1.483       .  S
C308        C309   1.412       .  A
C308        C943   1.479       .  S
C309        C310   1.416       .  A
C309       C1388   1.485       .  S
C310        C311   1.415       .  A
C310        C956   1.482       .  S
C311        C312   1.416       .  A
C311       C1359   1.485       .  S
C312        C924   1.483       .  S
N313        N314   1.320       .  A
N313        C317   1.340       .  A
N313       Cu321   2.052       .  S
N314        C315   1.350   1_455  A
N314       Cu320   2.088       .  S
C315        C316   1.388       .  A
C315        H318   1.082       .  S
C316        C317   1.379   1_655  A
C316        C940   1.472       .  S
C317        H319   1.082       .  S
Cu320       N323   2.091       .  S
Cu321       N331   2.052       .  S
Cu322       N324   2.082       .  S
Cu322       N330   2.080       .  S
N323        N324   1.326       .  A
N323        C327   1.347       .  A
N324        C325   1.345       .  A
C325        C326   1.381       .  A
C325        H328   1.082       .  S
C326        C327   1.384       .  A
C326        C693   1.472       .  S
C327        H329   1.082       .  S
N330        N331   1.320       .  A
N330        C334   1.350       .  A
N331        C332   1.338       .  A
C332        C333   1.379       .  A
C332        H335   1.082       .  S
C333        C334   1.387       .  A
C333       C1055   1.470       .  S
C334        H336   1.082       .  S
N337        N338   1.323       .  A
N337        C341   1.343       .  A
N337       Cu345   2.075       .  S
N338        C339   1.352       .  A
N338       Cu344   2.092       .  S
C339        C340   1.389       .  A
C339        H342   1.081       .  S
C340        C341   1.380       .  A
C340       C1132   1.477       .  S
C341        H343   1.082       .  S
Cu344       N347   2.092       .  S
Cu345       N355   2.075   1_554  S
Cu346       N348   2.077       .  S
Cu346       N354   2.077       .  S
N347        N348   1.325   1_554  A
N347        C351   1.347       .  A
N348        C349   1.345       .  A
C349        C350   1.381   1_556  A
C349        H352   1.082       .  S
C350        C351   1.385       .  A
C350        C679   1.472       .  S
C351        H353   1.082       .  S
N354        N355   1.321       .  A
N354        C358   1.349       .  A
N355        C356   1.344       .  A
C356        C357   1.383       .  A
C356        H359   1.082       .  S
C357        C358   1.386       .  A
C357        C911   1.474       .  S
C358        H360   1.082       .  S
C361        C362   1.417       .  A
C361        C366   1.414       .  A
C361       C1228   1.484       .  S
C362        C363   1.413       .  A
C362        C908   1.486       .  S
C363        C364   1.416       .  A
C363       C1276   1.484       .  S
C364        C365   1.414       .  A
C364        C895   1.480       .  S
C365        C366   1.414       .  A
C365        C860   1.488       .  S
C366        C876   1.480       .  S
N367        N368   1.322       .  A
N367        C371   1.344       .  A
N367       Cu375   2.073       .  S
N368        C369   1.349       .  A
N368       Cu374   2.086       .  S
C369        C370   1.387       .  A
C369        H372   1.082       .  S
C370        C371   1.382       .  A
C370        C844   1.476       .  S
C371        H373   1.081       .  S
Cu374       N377   2.087       .  S
Cu375       N385   2.072       .  S
Cu376       N378   2.082       .  S
Cu376       N384   2.081       .  S
N377        N378   1.325       .  A
N377        C381   1.347       .  A
N378        C379   1.346       .  A
C379        C380   1.382       .  A
C379        H382   1.082       .  S
C380        C381   1.384       .  A
C380        C706   1.472       .  S
C381        H383   1.082       .  S
N384        N385   1.322       .  A
N384        C388   1.350   1_565  A
N385        C386   1.343   1_565  A
C386        C387   1.381       .  A
C386        H389   1.082   1_545  S
C387        C388   1.387       .  A
C387        C892   1.473       .  S
C388        H390   1.081       .  S
C391        C392   1.415       .  A
C391        C396   1.417       .  A
C391       C1244   1.486       .  S
C392        C393   1.416       .  A
C392        C831   1.486       .  S
C393        C394   1.415       .  A
C393       C1455   1.486       .  S
C394        C395   1.417       .  A
C394        C847   1.485       .  S
C395        C396   1.419       .  A
C395       C1199   1.488       .  S
C396        C812   1.486       .  S
N397        N398   1.321       .  A
N397        C401   1.342       .  A
N397       Cu405   2.063       .  S
N398        C399   1.349   1_455  A
N398       Cu404   2.079       .  S
C399        C400   1.387       .  A
C399        H402   1.082       .  S
C400        C401   1.380   1_655  A
C400        C799   1.470       .  S
C401        H403   1.082       .  S
Cu404       N407   2.080       .  S
Cu405       N415   2.063       .  S
Cu406       N408   2.097       .  S
Cu406       N414   2.095       .  S
N407        N408   1.326       .  A
N407        C411   1.345       .  A
N408        C409   1.349       .  A
C409        C410   1.386       .  A
C409        H412   1.082       .  S
C410        C411   1.381       .  A
C410        C692   1.474       .  S
C411        H413   1.082       .  S
N414        N415   1.322       .  A
N414        C418   1.352       .  A
N415        C416   1.341       .  A
C416        C417   1.380       .  A
C416        H419   1.082       .  S
C417        C418   1.389       .  A
C417        C828   1.476       .  S
C418        H420   1.082       .  S
N421        N422   1.321       .  A
N421        C425   1.342   1_455  A
N421       Cu429   2.061       .  S
N422        C423   1.350   1_455  A
N422       Cu428   2.085       .  S
C423        C424   1.388       .  A
C423        H426   1.082       .  S
C424        C425   1.379       .  A
C424        C780   1.471       .  S
C425        H427   1.081   1_655  S
Cu428       N431   2.086       .  S
Cu429       N439   2.061       .  S
Cu430       N432   2.092       .  S
Cu430       N438   2.091       .  S
N431        N432   1.325       .  A
N431        C435   1.346       .  A
N432        C433   1.349       .  A
C433        C434   1.385       .  A
C433        H436   1.082       .  S
C434        C435   1.383       .  A
C434        C694   1.475       .  S
C435        H437   1.082       .  S
N438        N439   1.322       .  A
N438        C442   1.350       .  A
N439        C440   1.342       .  A
C440        C441   1.381       .  A
C440        H443   1.081       .  S
C441        C442   1.387       .  A
C441        C879   1.474       .  S
C442        H444   1.082       .  S
C445        C446   1.415       .  A
C445        C450   1.415       .  A
C445       C1263   1.483       .  S
C446        C447   1.413       .  A
C446        C764   1.483       .  S
C447        C448   1.412       .  A
C447       C1420   1.482       .  S
C448        C449   1.417       .  A
C448        C783   1.482       .  S
C449        C450   1.414       .  A
C449       C1308   1.485       .  S
C450        C748   1.484       .  S
N451        N452   1.322       .  A
N451        C455   1.341       .  A
N451       Cu459   2.060       .  S
N452        C453   1.351   1_565  A
N452       Cu458   2.094       .  S
C453        C454   1.388       .  A
C453        H456   1.082       .  S
C454        C455   1.381   1_545  A
C454        C767   1.476       .  S
C455        H457   1.081       .  S
Cu458       N461   2.096       .  S
Cu459       N469   2.060       .  S
Cu460       N462   2.082       .  S
Cu460       N468   2.081       .  S
N461        N462   1.325       .  A
N461        C465   1.349       .  A
N462        C463   1.345       .  A
C463        C464   1.382       .  A
C463        H466   1.082       .  S
C464        C465   1.386       .  A
C464        C708   1.475       .  S
C465        H467   1.082       .  S
N468        N469   1.321       .  A
N468        C472   1.349       .  A
N469        C470   1.341       .  A
C470        C471   1.379       .  A
C470        H473   1.081       .  S
C471        C472   1.387       .  A
C471        C732   1.471       .  S
C472        H474   1.081       .  S
C475        C476   1.412       .  A
C475        C480   1.415       .  A
C475        C735   1.481       .  S
C476        C477   1.412       .  A
C476       C1407   1.485       .  S
C477        C478   1.417       .  A
C477        C796   1.479       .  S
C478        C479   1.414       .  A
C478       C1292   1.482       .  S
C479        C480   1.413       .  A
C479        C716   1.487       .  S
C480       C1215   1.479       .  S
N481        N482   1.321       .  A
N481        C485   1.342       .  A
N481       Cu489   2.063   1_556  S
N482        C483   1.351       .  A
N482       Cu488   2.092       .  S
C483        C484   1.388       .  A
C483        H486   1.082       .  S
C484        C485   1.381       .  A
C484        C815   1.476       .  S
C485        H487   1.082       .  S
Cu488       N491   2.094       .  S
Cu489       N499   2.063       .  S
Cu490       N492   2.092       .  S
Cu490       N498   2.090       .  S
N491        N492   1.326   1_556  A
N491        C495   1.349       .  A
N492        C493   1.347       .  A
C493        C494   1.384   1_554  A
C493        H496   1.082       .  S
C494        C495   1.385       .  A
C494        C677   1.477       .  S
C495        H497   1.082       .  S
N498        N499   1.321       .  A
N498        C502   1.351       .  A
N499        C500   1.342       .  A
C500        C501   1.379       .  A
C500        H503   1.081       .  S
C501        C502   1.389       .  A
C501       C1039   1.474       .  S
C502        H504   1.081       .  S
N505        N506   1.321       .  A
N505        C509   1.342       .  A
N505       Cu513   2.062       .  S
N506        C507   1.349       .  A
N506       Cu512   2.082       .  S
C507        C508   1.386       .  A
C507        H510   1.082       .  S
C508        C509   1.381       .  A
C508        C988   1.472       .  S
C509        H511   1.081       .  S
Cu512       N515   2.084       .  S
Cu513       N523   2.063   1_554  S
Cu514       N516   2.088       .  S
Cu514       N522   2.087       .  S
N515        N516   1.325   1_554  A
N515        C519   1.346       .  A
N516        C517   1.347       .  A
C517        C518   1.384   1_556  A
C517        H520   1.082       .  S
C518        C519   1.384       .  A
C518        C678   1.474       .  S
C519        H521   1.082       .  S
N522        N523   1.321       .  A
N522        C526   1.349       .  A
N523        C524   1.342       .  A
C524        C525   1.382       .  A
C524        H527   1.081       .  S
C525        C526   1.387       .  A
C525        C751   1.475       .  S
C526        H528   1.082       .  S
N529        N530   1.321       .  A
N529        C533   1.342       .  A
N529       Cu537   2.062   1_554  S
N530        C531   1.348       .  A
N530       Cu536   2.080       .  S
C531        C532   1.385       .  A
C531        H534   1.082       .  S
C532        C533   1.381       .  A
C532        C927   1.471       .  S
C533        H535   1.082       .  S
Cu536       N539   2.081       .  S
Cu537       N547   2.062       .  S
Cu538       N540   2.084       .  S
Cu538       N546   2.084       .  S
N539        N540   1.325   1_554  A
N539        C543   1.346       .  A
N540        C541   1.346       .  A
C541        C542   1.383       .  A
C541        H544   1.082       .  S
C542        C543   1.383   1_556  A
C542        C680   1.471       .  S
C543        H545   1.082       .  S
N546        N547   1.321       .  A
N546        C550   1.349       .  A
N547        C548   1.342       .  A
C548        C549   1.382       .  A
C548        H551   1.082       .  S
C549        C550   1.387       .  A
C549        C719   1.474       .  S
C550        H552   1.082       .  S
N553        N554   1.322       .  A
N553        C557   1.342       .  A
N553       Cu561   2.063       .  S
N554        C555   1.350       .  A
N554       Cu560   2.091       .  S
C555        C556   1.388       .  A
C555        H558   1.082       .  S
C556        C557   1.379       .  A
C556        C972   1.473       .  S
C557        H559   1.082       .  S
Cu560       N563   2.092       .  S
Cu561       N571   2.063       .  S
Cu562       N564   2.087       .  S
Cu562       N570   2.085       .  S
N563        N564   1.325       .  A
N563        C567   1.348       .  A
N564        C565   1.347       .  A
C565        C566   1.383   1_545  A
C565        H568   1.082       .  S
C566        C567   1.385   1_565  A
C566        C652   1.476       .  S
C567        H569   1.082       .  S
N570        N571   1.321       .  A
N570        C574   1.350       .  A
N571        C572   1.342       .  A
C572        C573   1.379       .  A
C572        H575   1.082       .  S
C573        C574   1.388       .  A
C573       C1103   1.472       .  S
C574        H576   1.082       .  S
N577        N578   1.321       .  A
N577        C581   1.342       .  A
N577       Cu585   2.058       .  S
N578        C579   1.348       .  A
N578       Cu584   2.085       .  S
C579        C580   1.387       .  A
C579        H582   1.082       .  S
C580        C581   1.379       .  A
C580       C1023   1.471       .  S
C581        H583   1.082       .  S
Cu584       N587   2.087       .  S
Cu585       N595   2.058       .  S
Cu586       N588   2.082       .  S
Cu586       N594   2.081       .  S
N587        N588   1.325       .  A
N587        C591   1.347       .  A
N588        C589   1.345       .  A
C589        C590   1.382       .  A
C589        H592   1.082       .  S
C590        C591   1.384       .  A
C590        C664   1.472       .  S
C591        H593   1.082       .  S
N594        N595   1.321       .  A
N594        C598   1.350       .  A
N595        C596   1.340       .  A
C596        C597   1.378       .  A
C596        H599   1.082       .  S
C597        C598   1.387       .  A
C597       C1119   1.469       .  S
C598        H600   1.081       .  S
N601        N602   1.322       .  A
N601        C605   1.342       .  A
N601       Cu609   2.071       .  S
N602        C603   1.351       .  A
N602       Cu608   2.093       .  S
C603        C604   1.388       .  A
C603        H606   1.082       .  S
C604        C605   1.382       .  A
C604        C863   1.478       .  S
C605        H607   1.082       .  S
Cu608       N611   2.094       .  S
Cu609       N619   2.071       .  S
Cu610       N612   2.092       .  S
Cu610       N618   2.091       .  S
N611        N612   1.325       .  A
N611        C615   1.349       .  A
N612        C613   1.347       .  A
C613        C614   1.385   1_545  A
C613        H616   1.082       .  S
C614        C615   1.386   1_565  A
C614        C636   1.478       .  S
C615        H617   1.082       .  S
N618        N619   1.321       .  A
N618        C622   1.350       .  A
N619        C620   1.344       .  A
C620        C621   1.384       .  A
C620        H623   1.081       .  S
C621        C622   1.388       .  A
C621       C1084   1.479       .  S
C622        H624   1.082       .  S
O625       Cu633   2.022       .  S
O625        C635   1.279       .  A
O626       Cu633   2.024       .  S
O626        C636   1.279       .  A
O627       Cu633   2.015       .  S
O627        C637   1.278       .  A
O628       Cu633   2.020       .  S
O628        C638   1.279       .  A
O629       Cu634   2.019       .  S
O629        C638   1.279       .  A
O630       Cu634   2.015       .  S
O630        C637   1.278       .  A
O631       Cu634   2.020       .  S
O631        C636   1.279       .  A
O632       Cu634   2.021       .  S
O632        C635   1.279       .  A
Cu633      Cu634   2.373       .  S
O639       Cu647   2.020   1_556  S
O639        C649   1.279       .  A
O640       Cu647   2.019       .  S
O640        C650   1.279       .  A
O641       Cu647   2.016   1_556  S
O641        C651   1.278       .  A
O642       Cu647   2.015       .  S
O642        C652   1.278       .  A
O643       Cu648   2.021       .  S
O643        C652   1.279       .  A
O644       Cu648   2.024   1_556  S
O644        C651   1.279       .  A
O645       Cu648   2.012       .  S
O645        C650   1.277       .  A
O646       Cu648   2.010   1_556  S
O646        C649   1.277       .  A
Cu647      Cu648   2.374       .  S
O653       Cu661   2.012   1_556  S
O653        C663   1.278       .  A
O654       Cu661   2.013       .  S
O654        C664   1.278       .  A
O655       Cu661   2.017       .  S
O655        C665   1.278       .  A
O656       Cu661   2.019   1_556  S
O656        C666   1.279       .  A
O657       Cu662   2.019   1_556  S
O657        C666   1.279       .  A
O658       Cu662   2.017       .  S
O658        C665   1.279       .  A
O659       Cu662   2.013       .  S
O659        C664   1.278       .  A
O660       Cu662   2.012   1_556  S
O660        C663   1.278       .  A
Cu661      Cu662   2.374       .  S
O667       Cu675   2.022       .  S
O667        C677   1.279       .  A
O668       Cu675   2.021       .  S
O668        C678   1.279   1_556  A
O669       Cu675   2.015       .  S
O669        C679   1.279   1_556  A
O670       Cu675   2.014       .  S
O670        C680   1.278       .  A
O671       Cu676   2.013       .  S
O671        C680   1.278   1_554  A
O672       Cu676   2.012       .  S
O672        C679   1.277       .  A
O673       Cu676   2.014       .  S
O673        C678   1.278       .  A
O674       Cu676   2.018       .  S
O674        C677   1.279   1_554  A
Cu675      Cu676   2.374   1_556  S
O681       Cu689   2.018       .  S
O681        C691   1.279       .  A
O682       Cu689   2.018       .  S
O682        C692   1.279       .  A
O683       Cu689   2.011       .  S
O683        C693   1.277       .  A
O684       Cu689   2.013       .  S
O684        C694   1.278       .  A
O685       Cu690   2.020       .  S
O685        C694   1.279       .  A
O686       Cu690   2.019       .  S
O686        C693   1.279       .  A
O687       Cu690   2.015       .  S
O687        C692   1.278       .  A
O688       Cu690   2.012       .  S
O688        C691   1.278       .  A
Cu689      Cu690   2.374       .  S
O695       Cu703   2.015       .  S
O695        C705   1.278       .  A
O696       Cu703   2.016       .  S
O696        C706   1.278       .  A
O697       Cu703   2.017       .  S
O697        C707   1.278       .  A
O698       Cu703   2.018       .  S
O698        C708   1.279       .  A
O699       Cu704   2.019       .  S
O699        C708   1.278       .  A
O700       Cu704   2.019       .  S
O700        C707   1.279       .  A
O701       Cu704   2.012       .  S
O701        C706   1.278       .  A
O702       Cu704   2.012       .  S
O702        C705   1.278       .  A
Cu703      Cu704   2.374       .  S
C709        C714   1.380       .  A
C709        C710   1.402       .  A
C709        O715   1.319       .  A
C710        C711   1.402       .  A
C710        H721   1.082       .  S
C711        C720   1.358       .  A
C711        C712   1.380       .  A
C712        C713   1.405       .  A
C712        O718   1.322       .  A
C713        C714   1.405       .  A
C713        H722   1.082       .  S
C714        C717   1.362       .  A
O715        C716   1.330       .  A
C716        C717   1.393       .  A
C717        H723   1.082       .  S
O718        C719   1.332       .  A
C719        C720   1.391       .  A
C720        H724   1.082       .  S
C725        C730   1.380       .  A
C725        C726   1.401       .  A
C725        O731   1.315       .  A
C726        C727   1.399       .  A
C726        H737   1.082       .  S
C727        C736   1.360       .  A
C727        C728   1.380       .  A
C728        C729   1.406       .  A
C728        O734   1.319       .  A
C729        C730   1.405       .  A
C729        H738   1.082       .  S
C730        C733   1.366       .  A
O731        C732   1.329       .  A
C732        C733   1.393       .  A
C733        H739   1.082       .  S
O734        C735   1.331       .  A
C735        C736   1.388       .  A
C736        H740   1.082       .  S
C741        C746   1.381       .  A
C741        C742   1.402       .  A
C741        O747   1.319       .  A
C742        C743   1.402       .  A
C742        H753   1.082       .  S
C743        C752   1.359       .  A
C743        C744   1.380       .  A
C744        C745   1.405       .  A
C744        O750   1.322       .  A
C745        C746   1.405       .  A
C745        H754   1.082       .  S
C746        C749   1.362       .  A
O747        C748   1.329       .  A
C748        C749   1.392       .  A
C749        H755   1.083       .  S
O750        C751   1.332       .  A
C751        C752   1.392       .  A
C752        H756   1.082       .  S
C757        C762   1.381       .  A
C757        C758   1.402       .  A
C757        O763   1.319       .  A
C758        C759   1.402       .  A
C758        H769   1.082       .  S
C759        C768   1.359       .  A
C759        C760   1.380       .  A
C760        C761   1.405       .  A
C760        O766   1.322       .  A
C761        C762   1.405       .  A
C761        H770   1.082       .  S
C762        C765   1.362       .  A
O763        C764   1.330       .  A
C764        C765   1.391       .  A
C765        H771   1.082       .  S
O766        C767   1.332       .  A
C767        C768   1.392       .  A
C768        H772   1.082       .  S
C773        C778   1.380       .  A
C773        C774   1.401       .  A
C773        O779   1.316       .  A
C774        C775   1.399       .  A
C774        H785   1.082       .  S
C775        C784   1.359       .  A
C775        C776   1.380       .  A
C776        C777   1.406       .  A
C776        O782   1.320       .  A
C777        C778   1.405       .  A
C777        H786   1.083       .  S
C778        C781   1.366       .  A
O779        C780   1.330       .  A
C780        C781   1.393       .  A
C781        H787   1.082       .  S
O782        C783   1.332       .  A
C783        C784   1.389       .  A
C784        H788   1.082       .  S
C789        C794   1.381       .  A
C789        C790   1.406       .  A
C789        O795   1.319       .  A
C790        C791   1.405       .  A
C790        H801   1.082       .  S
C791        C800   1.366       .  A
C791        C792   1.380       .  A
C792        C793   1.401       .  A
C792        O798   1.316       .  A
C793        C794   1.400       .  A
C793        H802   1.082       .  S
C794        C797   1.360       .  A
O795        C796   1.331       .  A
C796        C797   1.388       .  A
C797        H803   1.082       .  S
O798        C799   1.330       .  A
C799        C800   1.392       .  A
C800        H804   1.082       .  S
C805        C810   1.380       .  A
C805        C806   1.402       .  A
C805        O811   1.318       .  A
C806        C807   1.402       .  A
C806        H817   1.082       .  S
C807        C816   1.359       .  A
C807        C808   1.380       .  A
C808        C809   1.406       .  A
C808        O814   1.323       .  A
C809        C810   1.406       .  A
C809        H818   1.082       .  S
C810        C813   1.364       .  A
O811        C812   1.330       .  A
C812        C813   1.393       .  A
C813        H819   1.082       .  S
O814        C815   1.332       .  A
C815        C816   1.391       .  A
C816        H820   1.082       .  S
C821        C826   1.380       .  A
C821        C822   1.406       .  A
C821        O827   1.323       .  A
C822        C823   1.406       .  A
C822        H833   1.082       .  S
C823        C832   1.363       .  A
C823        C824   1.380       .  A
C824        C825   1.401       .  A
C824        O830   1.319       .  A
C825        C826   1.402       .  A
C825        H834   1.083       .  S
C826        C829   1.358       .  A
O827        C828   1.333       .  A
C828        C829   1.391       .  A
C829        H835   1.082       .  S
O830        C831   1.330       .  A
C831        C832   1.393       .  A
C832        H836   1.082       .  S
C837        C842   1.380       .  A
C837        C838   1.403       .  A
C837        O843   1.318       .  A
C838        C839   1.402       .  A
C838        H849   1.082       .  S
C839        C848   1.362       .  A
C839        C840   1.380       .  A
C840        C841   1.407       .  A
C840        O846   1.321       .  A
C841        C842   1.406       .  A
C841        H850   1.083       .  S
C842        C845   1.366       .  A
O843        C844   1.331       .  A
C844        C845   1.393       .  A
C845        H851   1.083       .  S
O846        C847   1.332       .  A
C847        C848   1.390       .  A
C848        H852   1.082       .  S
C853        C858   1.380       .  A
C853        C854   1.401       .  A
C853        O859   1.318       .  A
C854        C855   1.401       .  A
C854        H865   1.083       .  S
C855        C864   1.358       .  A
C855        C856   1.380       .  A
C856        C857   1.408       .  A
C856        O862   1.324       .  A
C857        C858   1.407       .  A
C857        H866   1.082       .  S
C858        C861   1.365       .  A
O859        C860   1.330       .  A
C860        C861   1.394       .  A
C861        H867   1.082       .  S
O862        C863   1.334       .  A
C863        C864   1.391       .  A
C864        H868   1.082       .  S
C869        C874   1.381       .  A
C869        C870   1.402       .  A
C869        O875   1.319       .  A
C870        C871   1.402       .  A
C870        H881   1.082       .  S
C871        C880   1.359       .  A
C871        C872   1.380       .  A
C872        C873   1.404       .  A
C872        O878   1.321       .  A
C873        C874   1.404       .  A
C873        H882   1.083       .  S
C874        C877   1.361       .  A
O875        C876   1.329       .  A
C876        C877   1.390       .  A
C877        H883   1.082       .  S
O878        C879   1.331       .  A
C879        C880   1.392       .  A
C880        H884   1.082       .  S
C885        C890   1.380       .  A
C885        C886   1.401       .  A
C885        O891   1.316       .  A
C886        C887   1.399       .  A
C886        H897   1.082       .  S
C887        C896   1.360       .  A
C887        C888   1.381       .  A
C888        C889   1.407       .  A
C888        O894   1.320       .  A
C889        C890   1.406       .  A
C889        H898   1.082       .  S
C890        C893   1.367       .  A
O891        C892   1.330       .  A
C892        C893   1.394       .  A
C893        H899   1.082       .  S
O894        C895   1.332       .  A
C895        C896   1.387       .  A
C896        H900   1.082       .  S
C901        C906   1.380       .  A
C901        C902   1.408       .  A
C901        O907   1.322       .  A
C902        C903   1.407       .  A
C902        H913   1.082       .  S
C903        C912   1.367       .  A
C903        C904   1.380       .  A
C904        C905   1.402       .  A
C904        O910   1.317       .  A
C905        C906   1.400       .  A
C905        H914   1.082       .  S
C906        C909   1.360       .  A
O907        C908   1.333       .  A
C908        C909   1.389       .  A
C909        H915   1.082       .  S
O910        C911   1.330       .  A
C911        C912   1.394       .  A
C912        H916   1.082       .  S
C917        C922   1.381       .  A
C917        C918   1.401       .  A
C917        O923   1.317       .  A
C918        C919   1.401       .  A
C918        H929   1.082       .  S
C919        C928   1.358       .  A
C919        C920   1.380       .  A
C920        C921   1.404       .  A
C920        O926   1.320       .  A
C921        C922   1.404       .  A
C921        H930   1.081       .  S
C922        C925   1.361       .  A
O923        C924   1.330       .  A
C924        C925   1.392       .  A
C925        H931   1.082       .  S
O926        C927   1.331       .  A
C927        C928   1.391       .  A
C928        H932   1.083       .  S
C933        C938   1.381       .  A
C933        C934   1.405       .  A
C933        O939   1.322       .  A
C934        C935   1.405       .  A
C934        H945   1.082       .  S
C935        C944   1.362       .  A
C935        C936   1.381       .  A
C936        C937   1.400       .  A
C936        O942   1.317       .  A
C937        C938   1.400       .  A
C937        H946   1.082       .  S
C938        C941   1.357       .  A
O939        C940   1.331       .  A
C940        C941   1.391       .  A
C941        H947   1.082       .  S
O942        C943   1.329       .  A
C943        C944   1.391       .  A
C944        H948   1.082       .  S
C949        C954   1.380       .  A
C949        C950   1.405       .  A
C949        O955   1.319       .  A
C950        C951   1.404       .  A
C950        H961   1.082       .  S
C951        C960   1.364       .  A
C951        C952   1.380       .  A
C952        C953   1.401       .  A
C952        O958   1.317       .  A
C953        C954   1.400       .  A
C953        H962   1.082       .  S
C954        C957   1.359       .  A
O955        C956   1.331       .  A
C956        C957   1.390       .  A
C957        H963   1.082       .  S
O958        C959   1.330       .  A
C959        C960   1.392       .  A
C960        H964   1.082       .  S
C965        C970   1.380       .  A
C965        C966   1.402       .  A
C965        O971   1.317       .  A
C966        C967   1.401       .  A
C966        H977   1.082       .  S
C967        C976   1.360       .  A
C967        C968   1.380       .  A
C968        C969   1.406       .  A
C968        O974   1.320       .  A
C969        C970   1.405       .  A
C969        H978   1.082       .  S
C970        C973   1.366       .  A
O971        C972   1.331       .  A
C972        C973   1.392       .  A
C973        H979   1.082       .  S
O974        C975   1.331       .  A
C975        C976   1.390       .  A
C976        H980   1.082       .  S
C981        C986   1.380       .  A
C981        C982   1.405       .  A
C981        O987   1.321       .  A
C982        C983   1.405       .  A
C982        H993   1.082       .  S
C983        C992   1.363       .  A
C983        C984   1.381       .  A
C984        C985   1.399       .  A
C984        O990   1.316       .  A
C985        C986   1.400       .  A
C985        H994   1.082       .  S
C986        C989   1.357       .  A
O987        C988   1.332       .  A
C988        C989   1.390       .  A
C989        H995   1.082       .  S
O990        C991   1.329       .  A
C991        C992   1.393       .  A
C992        H996   1.082       .  S
C997       C1002   1.380       .  A
C997        C998   1.402       .  A
C997       O1003   1.317       .  A
C998        C999   1.401       .  A
C998       H1009   1.082       .  S
C999       C1008   1.359       .  A
C999       C1000   1.380       .  A
C1000      C1001   1.404       .  A
C1000      O1006   1.318       .  A
C1001      C1002   1.403       .  A
C1001      H1010   1.083       .  S
C1002      C1005   1.363       .  A
O1003      C1004   1.330       .  A
C1004      C1005   1.392       .  A
C1005      H1011   1.082       .  S
O1006      C1007   1.331       .  A
C1007      C1008   1.391       .  A
C1008      H1012   1.082       .  S
C1013      C1018   1.381       .  A
C1013      C1014   1.404       .  A
C1013      O1019   1.318       .  A
C1014      C1015   1.403       .  A
C1014      H1025   1.082       .  S
C1015      C1024   1.364       .  A
C1015      C1016   1.380       .  A
C1016      C1017   1.402       .  A
C1016      O1022   1.317       .  A
C1017      C1018   1.401       .  A
C1017      H1026   1.082       .  S
C1018      C1021   1.361       .  A
O1019      C1020   1.330       .  A
C1020      C1021   1.389       .  A
C1021      H1027   1.082       .  S
O1022      C1023   1.330       .  A
C1023      C1024   1.391       .  A
C1024      H1028   1.082       .  S
C1029      C1034   1.380       .  A
C1029      C1030   1.405       .  A
C1029      O1035   1.319       .  A
C1030      C1031   1.404       .  A
C1030      H1041   1.083       .  S
C1031      C1040   1.366       .  A
C1031      C1032   1.380       .  A
C1032      C1033   1.403       .  A
C1032      O1038   1.317       .  A
C1033      C1034   1.401       .  A
C1033      H1042   1.082       .  S
C1034      C1037   1.362       .  A
O1035      C1036   1.331       .  A
C1036      C1037   1.390       .  A
C1037      H1043   1.082       .  S
O1038      C1039   1.331       .  A
C1039      C1040   1.392       .  A
C1040      H1044   1.083       .  S
C1045      C1050   1.381       .  A
C1045      C1046   1.398       .  A
C1045      O1051   1.316       .  A
C1046      C1047   1.399       .  A
C1046      H1057   1.083       .  S
C1047      C1056   1.354       .  A
C1047      C1048   1.380       .  A
C1048      C1049   1.405       .  A
C1048      O1054   1.322       .  A
C1049      C1050   1.405       .  A
C1049      H1058   1.082       .  S
C1050      C1053   1.361       .  A
O1051      C1052   1.328       .  A
C1052      C1053   1.392       .  A
C1053      H1059   1.082       .  S
O1054      C1055   1.332       .  A
C1055      C1056   1.389       .  A
C1056      H1060   1.082       .  S
C1061      C1066   1.380       .  A
C1061      C1062   1.405       .  A
C1061      O1067   1.322       .  A
C1062      C1063   1.405       .  A
C1062      H1073   1.082       .  S
C1063      C1072   1.362       .  A
C1063      C1064   1.381       .  A
C1064      C1065   1.401       .  A
C1064      O1070   1.318       .  A
C1065      C1066   1.401       .  A
C1065      H1074   1.082       .  S
C1066      C1069   1.358       .  A
O1067      C1068   1.332       .  A
C1068      C1069   1.392       .  A
C1069      H1075   1.082       .  S
O1070      C1071   1.329       .  A
C1071      C1072   1.392       .  A
C1072      H1076   1.082       .  S
C1077      C1082   1.380       .  A
C1077      C1078   1.407       .  A
C1077      O1083   1.323       .  A
C1078      C1079   1.406       .  A
C1078      H1089   1.082       .  S
C1079      C1088   1.365       .  A
C1079      C1080   1.380       .  A
C1080      C1081   1.403       .  A
C1080      O1086   1.319       .  A
C1081      C1082   1.403       .  A
C1081      H1090   1.082       .  S
C1082      C1085   1.361       .  A
O1083      C1084   1.333       .  A
C1084      C1085   1.392       .  A
C1085      H1091   1.082       .  S
O1086      C1087   1.331       .  A
C1087      C1088   1.393       .  A
C1088      H1092   1.082       .  S
C1093      C1098   1.380       .  A
C1093      C1094   1.406       .  A
C1093      O1099   1.320       .  A
C1094      C1095   1.405       .  A
C1094      H1105   1.082       .  S
C1095      C1104   1.367       .  A
C1095      C1096   1.380       .  A
C1096      C1097   1.401       .  A
C1096      O1102   1.316       .  A
C1097      C1098   1.399       .  A
C1097      H1106   1.082       .  S
C1098      C1101   1.360       .  A
O1099      C1100   1.332       .  A
C1100      C1101   1.388       .  A
C1101      H1107   1.082       .  S
O1102      C1103   1.330       .  A
C1103      C1104   1.393       .  A
C1104      H1108   1.082       .  S
C1109      C1114   1.380       .  A
C1109      C1110   1.406       .  A
C1109      O1115   1.319       .  A
C1110      C1111   1.404       .  A
C1110      H1121   1.082       .  S
C1111      C1120   1.367       .  A
C1111      C1112   1.380       .  A
C1112      C1113   1.401       .  A
C1112      O1118   1.314       .  A
C1113      C1114   1.398       .  A
C1113      H1122   1.082       .  S
C1114      C1117   1.360       .  A
O1115      C1116   1.331       .  A
C1116      C1117   1.388       .  A
C1117      H1123   1.082       .  S
O1118      C1119   1.329       .  A
C1119      C1120   1.392       .  A
C1120      H1124   1.082       .  S
C1125      C1130   1.380       .  A
C1125      C1126   1.404       .  A
C1125      O1131   1.318       .  A
C1126      C1127   1.402       .  A
C1126      H1137   1.082       .  S
C1127      C1136   1.363       .  A
C1127      C1128   1.379       .  A
C1128      C1129   1.408       .  A
C1128      O1134   1.321       .  A
C1129      C1130   1.407       .  A
C1129      H1138   1.083       .  S
C1130      C1133   1.369       .  A
O1131      C1132   1.331       .  A
C1132      C1133   1.394       .  A
C1133      H1139   1.082       .  S
O1134      C1135   1.333       .  A
C1135      C1136   1.391       .  A
C1136      H1140   1.082       .  S
C1141      C1146   1.380       .  A
C1141      C1142   1.407       .  A
C1141      O1147   1.323       .  A
C1142      C1143   1.406       .  A
C1142      H1153   1.082       .  S
C1143      C1152   1.364       .  A
C1143      C1144   1.381       .  A
C1144      C1145   1.400       .  A
C1144      O1150   1.316       .  A
C1145      C1146   1.400       .  A
C1145      H1154   1.082       .  S
C1146      C1149   1.357       .  A
O1147      C1148   1.333       .  A
C1148      C1149   1.391       .  A
C1149      H1155   1.082       .  S
O1150      C1151   1.329       .  A
C1151      C1152   1.392       .  A
C1152      H1156   1.082       .  S
C1157      C1162   1.381       .  A
C1157      C1158   1.399       .  A
C1157      O1163   1.316       .  A
C1158      C1159   1.399       .  A
C1158      H1169   1.082       .  S
C1159      C1168   1.357       .  A
C1159      C1160   1.381       .  A
C1160      C1161   1.404       .  A
C1160      O1166   1.320       .  A
C1161      C1162   1.403       .  A
C1161      H1170   1.083       .  S
C1162      C1165   1.361       .  A
O1163      C1164   1.329       .  A
C1164      C1165   1.391       .  A
C1165      H1171   1.083       .  S
O1166      C1167   1.331       .  A
C1167      C1168   1.390       .  A
C1168      H1172   1.082       .  S
C1173      C1178   1.380       .  A
C1173      C1174   1.406       .  A
C1173      O1179   1.322       .  A
C1174      C1175   1.406       .  A
C1174      H1185   1.082       .  S
C1175      C1184   1.363       .  A
C1175      C1176   1.381       .  A
C1176      C1177   1.400       .  A
C1176      O1182   1.317       .  A
C1177      C1178   1.401       .  A
C1177      H1186   1.082       .  S
C1178      C1181   1.357       .  A
O1179      C1180   1.332       .  A
C1180      C1181   1.391       .  A
C1181      H1187   1.082       .  S
O1182      C1183   1.329       .  A
C1183      C1184   1.393       .  A
C1184      H1188   1.082       .  S
C1189      C1194   1.380       .  A
C1189      C1190   1.406       .  A
C1189      O1195   1.322       .  A
C1190      C1191   1.406       .  A
C1190      H1201   1.082       .  S
C1191      C1200   1.364       .  A
C1191      C1192   1.380       .  A
C1192      C1193   1.403       .  A
C1192      O1198   1.319       .  A
C1193      C1194   1.403       .  A
C1193      H1202   1.082       .  S
C1194      C1197   1.361       .  A
O1195      C1196   1.332       .  A
C1196      C1197   1.392       .  A
C1197      H1203   1.082       .  S
O1198      C1199   1.331       .  A
C1199      C1200   1.393       .  A
C1200      H1204   1.082       .  S
C1205      C1210   1.380       .  A
C1205      C1206   1.401       .  A
C1205      O1211   1.315       .  A
C1206      C1207   1.399       .  A
C1206      H1217   1.082       .  S
C1207      C1216   1.359       .  A
C1207      C1208   1.381       .  A
C1208      C1209   1.406       .  A
C1208      O1214   1.319       .  A
C1209      C1210   1.405       .  A
C1209      H1218   1.082       .  S
C1210      C1213   1.366       .  A
O1211      C1212   1.330       .  A
C1212      C1213   1.393       .  A
C1213      H1219   1.082       .  S
O1214      C1215   1.331       .  A
C1215      C1216   1.387       .  A
C1216      H1220   1.082       .  S
C1221      C1226   1.380       .  A
C1221      C1222   1.405       .  A
C1221      O1227   1.319       .  A
C1222      C1223   1.404       .  A
C1222      H1233   1.083       .  S
C1223      C1232   1.366       .  A
C1223      C1224   1.380       .  A
C1224      C1225   1.403       .  A
C1224      O1230   1.317       .  A
C1225      C1226   1.401       .  A
C1225      H1234   1.082       .  S
C1226      C1229   1.361       .  A
O1227      C1228   1.331       .  A
C1228      C1229   1.390       .  A
C1229      H1235   1.082       .  S
O1230      C1231   1.331       .  A
C1231      C1232   1.392       .  A
C1232      H1236   1.082       .  S
C1237      C1242   1.380       .  A
C1237      C1238   1.407       .  A
C1237      O1243   1.321       .  A
C1238      C1239   1.406       .  A
C1238      H1249   1.083       .  S
C1239      C1248   1.367       .  A
C1239      C1240   1.380       .  A
C1240      C1241   1.404       .  A
C1240      O1246   1.318       .  A
C1241      C1242   1.402       .  A
C1241      H1250   1.082       .  S
C1242      C1245   1.363       .  A
O1243      C1244   1.332       .  A
C1244      C1245   1.390       .  A
C1245      H1251   1.082       .  S
O1246      C1247   1.331       .  A
C1247      C1248   1.393       .  A
C1248      H1252   1.082       .  S
C1253      C1258   1.380       .  A
C1253      C1254   1.406       .  A
C1253      O1259   1.322       .  A
C1254      C1255   1.405       .  A
C1254      H1265   1.082       .  S
C1255      C1264   1.364       .  A
C1255      C1256   1.381       .  A
C1256      C1257   1.400       .  A
C1256      O1262   1.317       .  A
C1257      C1258   1.400       .  A
C1257      H1266   1.082       .  S
C1258      C1261   1.358       .  A
O1259      C1260   1.332       .  A
C1260      C1261   1.391       .  A
C1261      H1267   1.082       .  S
O1262      C1263   1.329       .  A
C1263      C1264   1.392       .  A
C1264      H1268   1.082       .  S
C1269      C1274   1.380       .  A
C1269      C1270   1.407       .  A
C1269      O1275   1.320       .  A
C1270      C1271   1.405       .  A
C1270      H1281   1.082       .  S
C1271      C1280   1.368       .  A
C1271      C1272   1.380       .  A
C1272      C1273   1.403       .  A
C1272      O1278   1.316       .  A
C1273      C1274   1.401       .  A
C1273      H1282   1.082       .  S
C1274      C1277   1.362       .  A
O1275      C1276   1.332       .  A
C1276      C1277   1.390       .  A
C1277      H1283   1.082       .  S
O1278      C1279   1.331       .  A
C1279      C1280   1.393       .  A
C1280      H1284   1.082       .  S
C1285      C1290   1.380       .  A
C1285      C1286   1.406       .  A
C1285      O1291   1.319       .  A
C1286      C1287   1.405       .  A
C1286      H1297   1.082       .  S
C1287      C1296   1.366       .  A
C1287      C1288   1.381       .  A
C1288      C1289   1.400       .  A
C1288      O1294   1.314       .  A
C1289      C1290   1.398       .  A
C1289      H1298   1.082       .  S
C1290      C1293   1.358       .  A
O1291      C1292   1.332       .  A
C1292      C1293   1.389       .  A
C1293      H1299   1.082       .  S
O1294      C1295   1.329       .  A
C1295      C1296   1.392       .  A
C1296      H1300   1.082       .  S
C1301      C1306   1.380       .  A
C1301      C1302   1.406       .  A
C1301      O1307   1.320       .  A
C1302      C1303   1.405       .  A
C1302      H1313   1.082       .  S
C1303      C1312   1.365       .  A
C1303      C1304   1.380       .  A
C1304      C1305   1.402       .  A
C1304      O1310   1.317       .  A
C1305      C1306   1.400       .  A
C1305      H1314   1.082       .  S
C1306      C1309   1.359       .  A
O1307      C1308   1.332       .  A
C1308      C1309   1.390       .  A
C1309      H1315   1.082       .  S
O1310      C1311   1.330       .  A
C1311      C1312   1.392       .  A
C1312      H1316   1.082       .  S
C1317      C1322   1.380       .  A
C1317      C1318   1.404       .  A
C1317      O1323   1.321       .  A
C1318      C1319   1.404       .  A
C1318      H1329   1.082       .  S
C1319      C1328   1.361       .  A
C1319      C1320   1.381       .  A
C1320      C1321   1.402       .  A
C1320      O1326   1.318       .  A
C1321      C1322   1.402       .  A
C1321      H1330   1.082       .  S
C1322      C1325   1.359       .  A
O1323      C1324   1.331       .  A
C1324      C1325   1.392       .  A
C1325      H1331   1.082       .  S
O1326      C1327   1.330       .  A
C1327      C1328   1.390       .  A
C1328      H1332   1.082       .  S
C1333      C1338   1.380       .  A
C1333      C1334   1.405       .  A
C1333      O1339   1.322       .  A
C1334      C1335   1.405       .  A
C1334      H1345   1.082       .  S
C1335      C1344   1.363       .  A
C1335      C1336   1.381       .  A
C1336      C1337   1.400       .  A
C1336      O1342   1.317       .  A
C1337      C1338   1.401       .  A
C1337      H1346   1.082       .  S
C1338      C1341   1.357       .  A
O1339      C1340   1.332       .  A
C1340      C1341   1.391       .  A
C1341      H1347   1.082       .  S
O1342      C1343   1.329       .  A
C1343      C1344   1.392       .  A
C1344      H1348   1.082       .  S
C1349      C1354   1.380       .  A
C1349      C1350   1.405       .  A
C1349      O1355   1.322       .  A
C1350      C1351   1.405       .  A
C1350      H1361   1.082       .  S
C1351      C1360   1.362       .  A
C1351      C1352   1.380       .  A
C1352      C1353   1.401       .  A
C1352      O1358   1.318       .  A
C1353      C1354   1.401       .  A
C1353      H1362   1.082       .  S
C1354      C1357   1.358       .  A
O1355      C1356   1.332       .  A
C1356      C1357   1.391       .  A
C1357      H1363   1.082       .  S
O1358      C1359   1.330       .  A
C1359      C1360   1.393       .  A
C1360      H1364   1.082       .  S
C1365      C1370   1.380       .  A
C1365      C1366   1.402       .  A
C1365      O1371   1.317       .  A
C1366      C1367   1.401       .  A
C1366      H1377   1.082       .  S
C1367      C1376   1.360       .  A
C1367      C1368   1.380       .  A
C1368      C1369   1.404       .  A
C1368      O1374   1.319       .  A
C1369      C1370   1.403       .  A
C1369      H1378   1.082       .  S
C1370      C1373   1.364       .  A
O1371      C1372   1.331       .  A
C1372      C1373   1.391       .  A
C1373      H1379   1.082       .  S
O1374      C1375   1.330       .  A
C1375      C1376   1.389       .  A
C1376      H1380   1.082       .  S
C1381      C1386   1.381       .  A
C1381      C1382   1.400       .  A
C1381      O1387   1.318       .  A
C1382      C1383   1.401       .  A
C1382      H1393   1.082       .  S
C1383      C1392   1.357       .  A
C1383      C1384   1.380       .  A
C1384      C1385   1.407       .  A
C1384      O1390   1.324       .  A
C1385      C1386   1.407       .  A
C1385      H1394   1.083       .  S
C1386      C1389   1.364       .  A
O1387      C1388   1.330       .  A
C1388      C1389   1.393       .  A
C1389      H1395   1.082       .  S
O1390      C1391   1.333       .  A
C1391      C1392   1.391       .  A
C1392      H1396   1.082       .  S
C1397      C1402   1.380       .  A
C1397      C1398   1.405       .  A
C1397      O1403   1.322       .  A
C1398      C1399   1.405       .  A
C1398      H1409   1.082       .  S
C1399      C1408   1.363       .  A
C1399      C1400   1.380       .  A
C1400      C1401   1.402       .  A
C1400      O1406   1.319       .  A
C1401      C1402   1.402       .  A
C1401      H1410   1.082       .  S
C1402      C1405   1.359       .  A
O1403      C1404   1.332       .  A
C1404      C1405   1.392       .  A
C1405      H1411   1.082       .  S
O1406      C1407   1.330       .  A
C1407      C1408   1.392       .  A
C1408      H1412   1.082       .  S
C1413      C1418   1.380       .  A
C1413      C1414   1.405       .  A
C1413      O1419   1.319       .  A
C1414      C1415   1.404       .  A
C1414      H1425   1.082       .  S
C1415      C1424   1.365       .  A
C1415      C1416   1.380       .  A
C1416      C1417   1.405       .  A
C1416      O1422   1.319       .  A
C1417      C1418   1.403       .  A
C1417      H1426   1.082       .  S
C1418      C1421   1.364       .  A
O1419      C1420   1.330       .  A
C1420      C1421   1.390       .  A
C1421      H1427   1.082       .  S
O1422      C1423   1.332       .  A
C1423      C1424   1.392       .  A
C1424      H1428   1.082       .  S
C1429      C1434   1.381       .  A
C1429      C1430   1.406       .  A
C1429      O1435   1.320       .  A
C1430      C1431   1.405       .  A
C1430      H1441   1.082       .  S
C1431      C1440   1.367       .  A
C1431      C1432   1.380       .  A
C1432      C1433   1.400       .  A
C1432      O1438   1.314       .  A
C1433      C1434   1.398       .  A
C1433      H1442   1.083       .  S
C1434      C1437   1.358       .  A
O1435      C1436   1.332       .  A
C1436      C1437   1.387       .  A
C1437      H1443   1.083       .  S
O1438      C1439   1.329       .  A
C1439      C1440   1.393       .  A
C1440      H1444   1.082       .  S
C1445      C1450   1.380       .  A
C1445      C1446   1.405       .  A
C1445      O1451   1.322       .  A
C1446      C1447   1.405       .  A
C1446      H1457   1.082       .  S
C1447      C1456   1.362       .  A
C1447      C1448   1.381       .  A
C1448      C1449   1.402       .  A
C1448      O1454   1.319       .  A
C1449      C1450   1.402       .  A
C1449      H1458   1.084       .  S
C1450      C1453   1.359       .  A
O1451      C1452   1.332       .  A
C1452      C1453   1.392       .  A
C1453      H1459   1.085       .  S
O1454      C1455   1.330       .  A
C1455      C1456   1.392       .  A
C1456      H1460   1.082       .  S
C1461      C1466   1.380       .  A
C1461      C1462   1.402       .  A
C1461      O1467   1.319       .  A
C1462      C1463   1.403       .  A
C1462      H1473   1.082       .  S
C1463      C1472   1.360       .  A
C1463      C1464   1.380       .  A
C1464      C1465   1.406       .  A
C1464      O1470   1.323       .  A
C1465      C1466   1.406       .  A
C1465      H1474   1.082       .  S
C1466      C1469   1.364       .  A
O1467      C1468   1.331       .  A
C1468      C1469   1.392       .  A
C1469      H1475   1.082       .  S
O1470      C1471   1.332       .  A
C1471      C1472   1.392       .  A
C1472      H1476   1.082       .  S
