geometry optimzed in LAMMPS
_audit_creation_date              2020-12-01 
_audit_creation_method            'lammps2cif' 
_symmetry_space_group_name_H-M    'P1' 
_symmetry_Int_Tables_number       1 
_symmetry_cell_setting            triclinic 
loop_ 
_symmetry_equiv_pos_as_xyz 
  x,y,z 
_cell_length_a                    69.54196488 
_cell_length_b                    69.28138230645577 
_cell_length_c                    40.71437385028211 
_cell_angle_alpha                 89.54794352761108 
_cell_angle_beta                  89.989947014808 
_cell_angle_gamma                 124.70726065722128 
loop_ 
_atom_site_label 
_atom_site_type_symbol 
_atom_site_fract_x 
_atom_site_fract_y 
_atom_site_fract_z 
_atom_site_charge 
O1          O  0.44454073  0.42626570  0.21622313    -0.73100
O2          O  0.40819414  0.43467351  0.28473919    -0.74000
O3          O  0.41039777  0.43669474  0.21529819    -0.62700
O4          O  0.44219030  0.42391778  0.28552539    -0.71100
O5          O  0.47032002  0.46189613  0.28736508    -0.70600
O6          O  0.43846442  0.47458003  0.21746328    -0.61900
O7          O  0.43660072  0.47252875  0.28649732    -0.74400
O8          O  0.47238812  0.46422718  0.21866662    -0.73200
Cu9        Cu  0.42530787  0.42902531  0.25038384     1.04600
Cu10       Cu  0.45537492  0.46957087  0.25257582     1.04300
C11         C  0.46445934  0.44408587  0.20672447     0.93100
C12         C  0.41661915  0.45515211  0.29620389     0.92300
C13         C  0.41921706  0.45766326  0.20529855     0.84400
C14         C  0.46156303  0.44088173  0.29721411     0.90700
N15         N  0.88027112  0.47477239  0.06141297    -0.27400
N16         N  0.89826208  0.47800966  0.04493202    -0.35300
C17         C  0.91697682  0.48781468  0.06446783     0.00900
C18         C  0.91064462  0.49109155  0.09484244     0.07000
C19         C  0.88718951  0.48258312  0.09227784    -0.06100
H20         H  0.93398677  0.49220049  0.05706708     0.07600
H21         H  0.87587783  0.48152213  0.11150681     0.08800
Cu22       Cu  0.89737157  0.46964801  0.99667274     0.44200
Cu23       Cu  0.84753077  0.45904942  0.03989725     0.42000
Cu24       Cu  0.84541376  0.45055608  0.45414290     0.43900
N25         N  0.89668760  0.47281203  0.44856906    -0.34800
N26         N  0.87737497  0.46349839  0.43122700    -0.29000
C27         C  0.88302581  0.46562192  0.39908826    -0.05100
C28         C  0.90702549  0.47647076  0.39654779     0.07100
C29         C  0.91502537  0.48106102  0.42841471     0.00900
H30         H  0.87080078  0.46044993  0.37912290     0.08500
H31         H  0.93302759  0.49116396  0.43644007     0.07600
N32         N  0.81679894  0.43964196  0.48461192    -0.36200
N33         N  0.81755045  0.44204525  0.01107400    -0.28400
C34         C  0.79547214  0.43173420  0.02195241    -0.03700
C35         C  0.78045842  0.42149975  0.99558710     0.05000
C36         C  0.79433515  0.42694905  0.47503458     0.03000
H37         H  0.79064010  0.43110784  0.04738144     0.08200
H38         H  0.78867748  0.42043188  0.45044348     0.07000
N39         N  0.52222361  0.41186628  0.43528387    -0.27400
N40         N  0.51340047  0.42076897  0.45341111    -0.35300
C41         C  0.50436758  0.42934450  0.43404701     0.00900
C42         C  0.50787364  0.42607228  0.40186519     0.07000
C43         C  0.51893055  0.41455306  0.40337635    -0.06100
H44         H  0.49484737  0.43630166  0.44295123     0.07600
H45         H  0.52384388  0.40831434  0.38293012     0.08800
Cu46       Cu  0.51230120  0.41973494  0.50345086     0.44200
Cu47       Cu  0.53748235  0.39645235  0.45711195     0.42000
Cu48       Cu  0.54402875  0.40396131  0.04823919     0.43900
N49         N  0.52350831  0.43164982  0.05274314    -0.34800
N50         N  0.52945629  0.41961784  0.06997284    -0.29000
C51         C  0.52323621  0.41866203  0.10154081    -0.05100
C52         C  0.51276900  0.43062087  0.10396075     0.07100
C53         C  0.51340238  0.43875724  0.07267649     0.00900
H54         H  0.52592066  0.40974050  0.12101509     0.08500
H55         H  0.50619067  0.44833077  0.06473750     0.07600
N56         N  0.55664827  0.38895991  0.01966675    -0.36200
N57         N  0.55362786  0.38510103  0.48691311    -0.28400
C58         C  0.56585864  0.37681006  0.47609067    -0.03700
C59         C  0.57503844  0.37229650  0.50286663     0.05000
C60         C  0.56955411  0.38142561  0.03049892     0.03000
H61         H  0.56829679  0.37467325  0.45048272     0.08200
H62         H  0.57537346  0.38322865  0.05556395     0.07000
C63         C  0.64029292  0.34642705  0.99692284     0.03000
C64         C  0.63121187  0.32248782  0.99468765    -0.13100
C65         C  0.64615437  0.31498319  0.99502816     0.00500
C66         C  0.67043525  0.33177783  0.99571750    -0.11700
C67         C  0.67976718  0.35577990  0.99852655     0.03000
C68         C  0.66454444  0.36295943  0.99934130    -0.11100
H69         H  0.61249705  0.30973586  0.99266867     0.08600
H70         H  0.68209115  0.32611180  0.99496671     0.06100
H71         H  0.67156663  0.38137327  0.00233823     0.06000
N72         N  0.58243046  0.11999854  0.43014387    -0.27400
N73         N  0.56673984  0.10005599  0.44520894    -0.35300
C74         C  0.56115124  0.08205883  0.42572055     0.00900
C75         C  0.57416980  0.09105670  0.39716302     0.07000
C76         C  0.58739860  0.11520665  0.40060812    -0.06100
H77         H  0.54895810  0.06371957  0.43223056     0.07600
H78         H  0.59948496  0.12832137  0.38294068     0.08800
Cu79       Cu  0.55580547  0.09787834  0.49300167     0.44200
Cu80       Cu  0.59610176  0.15242857  0.45122489     0.42000
Cu81       Cu  0.59642262  0.15433666  0.04507441     0.43900
N82         N  0.58492833  0.10548515  0.04817658    -0.34800
N83         N  0.59051452  0.12373927  0.06621512    -0.29000
C84         C  0.59169989  0.11863390  0.09790405    -0.05100
C85         C  0.58671853  0.09616273  0.09934441     0.07100
C86         C  0.58266986  0.08852329  0.06739267     0.00900
H87         H  0.59602807  0.13040478  0.11817790     0.08500
H88         H  0.57784729  0.07158976  0.05877246     0.07600
N89         N  0.60235473  0.18190839  0.01492308    -0.36200
N90         N  0.60595722  0.18181727  0.47844939    -0.28400
C91         C  0.61465741  0.20349333  0.46663540    -0.03700
C92         C  0.61815623  0.21800102  0.49262317     0.05000
C93         C  0.61157044  0.20423210  0.02388272     0.03000
H94         H  0.61681511  0.20767260  0.44076917     0.08200
H95         H  0.61696327  0.21076123  0.04856976     0.07000
O96         O  0.57508912  0.98535181  0.28718271    -0.73100
O97         O  0.58943697  0.03195707  0.21585390    -0.74000
O98         O  0.58473615  0.03106083  0.28528321    -0.62700
O99         O  0.57944393  0.98599223  0.21760902    -0.71100
O100        O  0.54174521  0.97103147  0.21300804    -0.70600
O101        O  0.54697870  0.01535944  0.28007391    -0.61900
O102        O  0.55160033  0.01680871  0.21129386    -0.74400
O103        O  0.53735337  0.96993068  0.28230449    -0.73200
Cu104      Cu  0.58351943  0.00912331  0.25162847     1.04600
Cu105      Cu  0.54314729  0.99273893  0.24644632     1.04300
C106        C  0.55401627  0.97036514  0.29642639     0.93100
C107        C  0.57279175  0.03187407  0.20247745     0.92300
C108        C  0.56651760  0.03025475  0.29351279     0.84400
C109        C  0.55952233  0.97119402  0.20469672     0.90700
O110        O  0.02767250  0.58022298  0.28636348    -0.73100
O111        O  0.98181015  0.54959331  0.21361934    -0.74000
O112        O  0.97888822  0.54541970  0.28251664    -0.62700
O113        O  0.03058734  0.58409376  0.21726888    -0.71100
O114        O  0.03684729  0.55624616  0.21509649    -0.70600
O115        O  0.98568498  0.51786988  0.28081665    -0.61900
O116        O  0.98792305  0.52163853  0.21159422    -0.74400
O117        O  0.03468150  0.55291920  0.28452622    -0.73200
Cu118      Cu  0.00452800  0.56577267  0.25004455     1.04600
Cu119      Cu  0.01152464  0.53619492  0.24794641     1.04300
C120        C  0.03874783  0.57181869  0.29691526     0.93100
C121        C  0.97731009  0.53061260  0.20110141     0.92300
C122        C  0.97390597  0.52539725  0.29175924     0.84400
C123        C  0.04193549  0.57628553  0.20563807     0.90700
N124        N  0.35631343  0.48453395  0.43314951    -0.27400
N125        N  0.36020279  0.47128796  0.45148025    -0.35300
C126        C  0.36741358  0.46088699  0.43235170     0.00900
C127        C  0.36786617  0.46757370  0.40016093     0.07000
C128        C  0.36096652  0.48282357  0.40161058    -0.06100
H129        H  0.37391647  0.45099974  0.44172689     0.07600
H130        H  0.36059736  0.49289585  0.38148161     0.08800
Cu131      Cu  0.35984419  0.47385252  0.00114484     0.44200
Cu132      Cu  0.34823635  0.50669290  0.45315531     0.42000
Cu133      Cu  0.35558816  0.51549429  0.04534421     0.43900
N134        N  0.36587617  0.47915304  0.05077518    -0.34800
N135        N  0.36498214  0.49498310  0.06720359    -0.29000
C136        C  0.37219287  0.49585287  0.09815193    -0.05100
C137        C  0.37800422  0.47983966  0.10105976     0.07100
C138        C  0.37360127  0.46945975  0.07067472     0.00900
H139        H  0.37324619  0.50738420  0.11690314     0.08500
H140        H  0.37673048  0.45651460  0.06318442     0.07600
N141        N  0.34746668  0.53487767  0.01713992    -0.36200
N142        N  0.34394344  0.52918977  0.48077088    -0.28400
C143        C  0.33840358  0.54376428  0.46959498    -0.03700
C144        C  0.34094653  0.56145187  0.00175247     0.05000
C145        C  0.34488003  0.55147028  0.02824856     0.03000
H146        H  0.33488733  0.54521242  0.44415175     0.08200
H147        H  0.34754836  0.55690651  0.05355979     0.07000
C148        C  0.34300037  0.64633258  0.00040105     0.03000
C149        C  0.36453582  0.66839679  0.00136166    -0.13100
C150        C  0.36526907  0.68903388  0.00353989     0.00500
C151        C  0.34422713  0.68731088  0.00679604    -0.11700
C152        C  0.32262121  0.66538003  0.00609858     0.03000
C153        C  0.32214192  0.64501909  0.00230311    -0.11100
H154        H  0.38072526  0.66954098  0.00058695     0.08600
H155        H  0.34461929  0.70302987  0.01005832     0.06100
H156        H  0.30551031  0.62808679  0.00073854     0.06000
N157        N  0.14228053  0.63680692  0.06967428    -0.27400
N158        N  0.12431216  0.63267807  0.05218059    -0.35300
C159        C  0.10591099  0.62502230  0.07215171     0.00900
C160        C  0.11244549  0.62400209  0.10374680     0.07000
C161        C  0.13568990  0.63177213  0.10141219    -0.06100
H162        H  0.08853777  0.61891361  0.06391459     0.07600
H163        H  0.14670909  0.63274410  0.12098847     0.08800
Cu164      Cu  0.12354217  0.63263665  0.00166177     0.44200
Cu165      Cu  0.17359430  0.64565112  0.04862659     0.42000
Cu166      Cu  0.16868581  0.64211225  0.45548765     0.43900
N167        N  0.11975190  0.62879052  0.45135899    -0.34800
N168        N  0.13713439  0.63128700  0.43415294    -0.29000
C169        C  0.12980335  0.62390587  0.40332863    -0.05100
C170        C  0.10663922  0.61634213  0.40137554     0.07100
C171        C  0.10090312  0.61986502  0.43212988     0.00900
H172        H  0.14036677  0.62358570  0.38412648     0.08500
H173        H  0.08394987  0.61520378  0.44036463     0.07600
N174        N  0.19701731  0.64923862  0.48289859    -0.36200
N175        N  0.20100165  0.65041156  0.02052822    -0.28400
C176        C  0.22195843  0.65620717  0.03127474    -0.03700
C177        C  0.23459557  0.65644959  0.00473168     0.05000
C178        C  0.21580372  0.65077181  0.47087996     0.03000
H179        H  0.22742967  0.65956393  0.05664730     0.08200
H180        H  0.21777521  0.64798447  0.44538667     0.07000
N181        N  0.51468420  0.87391364  0.43742690    -0.27400
N182        N  0.52960460  0.89272733  0.45465659    -0.35300
C183        C  0.53945011  0.91177785  0.43508669     0.00900
C184        C  0.53014718  0.90470576  0.40398516     0.07000
C185        C  0.51467515  0.88048953  0.40625521    -0.06100
H186        H  0.55173152  0.92960930  0.44325845     0.07600
H187        H  0.50409871  0.86845263  0.38693448     0.08800
Cu188      Cu  0.53321447  0.89218592  0.50475561     0.44200
Cu189      Cu  0.49347743  0.84083456  0.45856345     0.42000
Cu190      Cu  0.50707217  0.84676860  0.04604836     0.43900
N191        N  0.54520247  0.89866693  0.04803225    -0.34800
N192        N  0.53167019  0.87957944  0.06614259    -0.29000
C193        C  0.53425289  0.88587823  0.09788750    -0.05100
C194        C  0.55014409  0.91010751  0.09984589     0.07100
C195        C  0.55653170  0.91749790  0.06758396     0.00900
H196        H  0.52392197  0.87396090  0.11782912     0.08500
H197        H  0.56644719  0.93537007  0.05843422     0.07600
N198        N  0.48333746  0.81695019  0.01891379    -0.36200
N199        N  0.47145643  0.81088733  0.48652923    -0.28400
C200        C  0.45596276  0.78921588  0.47502660    -0.03700
C201        C  0.44303505  0.77452902  0.50116894     0.05000
C202        C  0.46610952  0.79564925  0.03062660     0.03000
H203        H  0.45359646  0.78471081  0.44926899     0.08200
H204        H  0.46210354  0.79178576  0.05642366     0.07000
C205        C  0.40633980  0.74478991  0.47291070    -0.20400
C206        C  0.42182215  0.75015813  0.49897078    -0.07000
C207        C  0.42668210  0.73927837  0.02754718     0.13900
C208        C  0.40501608  0.71726520  0.02645337    -0.20500
C209        C  0.38805400  0.71240317  0.00299966    -0.07000
C210        C  0.38556890  0.72237156  0.46968002     0.13900
C211        C  0.37013191  0.71739825  0.44040183    -0.23800
H212        H  0.41031410  0.75834683  0.45517302     0.15200
H213        H  0.40117410  0.70376757  0.04422930     0.15200
C214        C  0.44448027  0.74275295  0.05229309    -0.23800
H215        H  0.37812764  0.73264174  0.42321081     0.05400
H216        H  0.36044453  0.72183050  0.96037888     0.08600
H217        H  0.36732833  0.70219846  0.42672062     0.08600
H218        H  0.44679890  0.75509376  0.07152805     0.08600
H219        H  0.45121627  0.74330505  0.53742809     0.08600
H220        H  0.43883499  0.72603559  0.06495769     0.05400
C221        C  0.28961683  0.66799239  0.47095672    -0.20400
C222        C  0.30050043  0.66388416  0.00735832    -0.07000
C223        C  0.28362546  0.65140937  0.03244948     0.13900
C224        C  0.26245104  0.64957787  0.03112366    -0.20500
C225        C  0.25776122  0.65999947  0.00546907    -0.07000
C226        C  0.26958963  0.66820691  0.47101449     0.13900
C227        C  0.26802165  0.68343946  0.44603035    -0.23800
H228        H  0.30297673  0.67790386  0.45230434     0.15200
H229        H  0.24930746  0.63960861  0.04999261     0.15200
C230        C  0.28816052  0.64067656  0.06117805    -0.23800
H231        H  0.28463984  0.69469592  0.43205494     0.05400
H232        H  0.26772948  0.69862654  0.96681897     0.08600
H233        H  0.25423741  0.67245187  0.42785082     0.08600
H234        H  0.30451738  0.65440097  0.07367758     0.08600
H235        H  0.27968913  0.61581658  0.53750132     0.08600
H236        H  0.27369870  0.63287074  0.07948871     0.05400
C237        C  0.33042503  0.60806297  0.02519895    -0.20400
C238        C  0.34205772  0.62441150  0.99954100    -0.07000
C239        C  0.34622781  0.61219649  0.46381757     0.13900
C240        C  0.34662771  0.59221926  0.46647552    -0.20500
C241        C  0.34035420  0.58259270  0.00152687    -0.07000
C242        C  0.32926732  0.58717117  0.02651285     0.13900
C243        C  0.31540306  0.56997843  0.05401876    -0.23800
H244        H  0.32236674  0.61183594  0.04460426     0.15200
H245        H  0.35489223  0.58862792  0.44718820     0.15200
C246        C  0.35595523  0.62731196  0.43327883    -0.23800
H247        H  0.30505252  0.57489756  0.06786621     0.05400
H248        H  0.32726899  0.56978542  0.07190808     0.08600
H249        H  0.30293511  0.55214917  0.04400359     0.08600
H250        H  0.37118240  0.64517672  0.43938364     0.08600
H251        H  0.34222358  0.62850207  0.42162714     0.08600
H252        H  0.36191414  0.61993471  0.41499809     0.05400
C253        C  0.07929571  0.61572937  0.36240967    -0.20400
C254        C  0.09051310  0.60541995  0.37349638    -0.07000
C255        C  0.08479253  0.58418092  0.35967589     0.13900
C256        C  0.06788199  0.57374622  0.33487784    -0.20500
C257        C  0.05649610  0.58400377  0.32340378    -0.07000
C258        C  0.06255295  0.60555674  0.33740880     0.13900
C259        C  0.05175480  0.61825547  0.32659731    -0.23800
H260        H  0.08373662  0.63195387  0.37351415     0.15200
H261        H  0.06346823  0.55732704  0.32459802     0.15200
C262        C  0.09576219  0.57197573  0.37188082    -0.23800
H263        H  0.05895852  0.63483519  0.34024505     0.05400
H264        H  0.03260180  0.60704936  0.33120978     0.08600
H265        H  0.05545199  0.62297721  0.30013001     0.08600
H266        H  0.09250841  0.56841764  0.39866427     0.08600
H267        H  0.11487058  0.58313411  0.36708186     0.08600
H268        H  0.08844705  0.55495936  0.35939902     0.05400
C269        C  0.07491767  0.58200006  0.17266153    -0.20400
C270        C  0.06103560  0.59012185  0.18097187    -0.07000
C271        C  0.06537485  0.61050399  0.16473349     0.13900
C272        C  0.08288719  0.62157422  0.14045116    -0.20500
C273        C  0.09637266  0.61315859  0.13211296    -0.07000
C274        C  0.09237279  0.59312234  0.14841389     0.13900
C275        C  0.10552022  0.58258338  0.13920833    -0.23800
H276        H  0.07189088  0.56651593  0.18481269     0.15200
H277        H  0.08590328  0.63679383  0.12741832     0.15200
C278        C  0.05150719  0.62059001  0.17193064    -0.23800
H279        H  0.09907915  0.56607270  0.15306742     0.05400
H280        H  0.12434641  0.59502838  0.14484701     0.08600
H281        H  0.10332794  0.57842872  0.11261609     0.08600
H282        H  0.05393689  0.62618585  0.19794207     0.08600
H283        H  0.03269139  0.60732120  0.16689057     0.08600
H284        H  0.05723247  0.63626433  0.15640647     0.05400
C285        C  0.53418169  0.91853574  0.14775769    -0.20400
C286        C  0.55367700  0.92515701  0.12822674    -0.07000
C287        C  0.57551836  0.94621303  0.13549104     0.13900
C288        C  0.57692728  0.96051026  0.16104608    -0.20500
C289        C  0.55710678  0.95447902  0.17949633    -0.07000
C290        C  0.53550162  0.93281372  0.17313661     0.13900
C291        C  0.51366954  0.92423096  0.19301336    -0.23800
H292        H  0.51748213  0.90235652  0.14243683     0.15200
H293        H  0.59357788  0.97683388  0.16608956     0.15200
C294        C  0.59757092  0.95349735  0.11719863    -0.23800
H295        H  0.49906720  0.90618101  0.18609251     0.05400
H296        H  0.50760956  0.93578404  0.18872070     0.08600
H297        H  0.51721629  0.92386877  0.21952394     0.08600
H298        H  0.59681838  0.95827125  0.09146093     0.08600
H299        H  0.59996943  0.93897007  0.11771170     0.08600
H300        H  0.61327736  0.96911494  0.12840692     0.05400
C301        C  0.55921659  0.93859900  0.36971279    -0.20400
C302        C  0.53570774  0.92038778  0.37533500    -0.07000
C303        C  0.51829334  0.91881064  0.35526598     0.13900
C304        C  0.52497694  0.93517143  0.32965232    -0.20500
C305        C  0.54858377  0.95338573  0.32364509    -0.07000
C306        C  0.56596998  0.95513464  0.34433694     0.13900
C307        C  0.59164024  0.97447579  0.34074580    -0.23800
H308        H  0.57246716  0.93994204  0.38551855     0.15200
H309        H  0.51148435  0.93374724  0.31435754     0.15200
C310        C  0.49258552  0.90079163  0.36154856    -0.23800
H311        H  0.60234027  0.97326997  0.35982684     0.07200
H312        H  0.59441599  0.99183905  0.34334664     0.08600
H313        H  0.59819242  0.97329914  0.31650772     0.08600
H314        H  0.48819321  0.90178299  0.38742807     0.08600
H315        H  0.48796702  0.88296215  0.35638396     0.08600
H316        H  0.48152662  0.90368571  0.34546955     0.05400
C317        C  0.59026903  0.06363510  0.33186146    -0.20400
C318        C  0.56811623  0.04653740  0.31891554    -0.07000
C319        C  0.54820185  0.04519868  0.33119618     0.13900
C320        C  0.55108448  0.06048436  0.35608943    -0.20500
C321        C  0.57309860  0.07718727  0.36904568    -0.07000
C322        C  0.59299245  0.07889633  0.35678994     0.13900
C323        C  0.61692724  0.09594797  0.37096354    -0.23800
H324        H  0.60561444  0.06490923  0.32283381     0.15200
H325        H  0.53592103  0.05928297  0.36585542     0.15200
C326        C  0.52368694  0.02767344  0.31902836    -0.23800
H327        H  0.63030498  0.09406373  0.35964933     0.05400
H328        H  0.61661712  0.09278326  0.39780076     0.08600
H329        H  0.62240490  0.11422157  0.36646130     0.08600
H330        H  0.51861967  0.00952263  0.32364459     0.08600
H331        H  0.52263198  0.03055480  0.29241787     0.08600
H332        H  0.51060542  0.02938554  0.33176501     0.05400
C333        C  0.59749183  0.07184237  0.12723260    -0.20400
C334        C  0.58493924  0.08207198  0.12805738    -0.07000
C335        C  0.56878627  0.07609985  0.15376660     0.13900
C336        C  0.56546032  0.05987408  0.17790535    -0.20500
C337        C  0.57793096  0.04954916  0.17702851    -0.07000
C338        C  0.59430932  0.05573753  0.15147290     0.13900
C339        C  0.60757841  0.04458679  0.14861796    -0.23800
H340        H  0.60952510  0.07615120  0.10704936     0.15200
H341        H  0.55287681  0.05504892  0.19748742     0.15200
C342        C  0.55416015  0.08581026  0.15493733    -0.23800
H343        H  0.61854373  0.05047291  0.12602287     0.05400
H344        H  0.59511419  0.02518099  0.14768887     0.08600
H345        H  0.61939552  0.04947827  0.16992749     0.08600
H346        H  0.54390446  0.08141717  0.13196990     0.08600
H347        H  0.56561137  0.10514253  0.15777645     0.08600
H348        H  0.54166883  0.07842478  0.17593223     0.05400
C349        C  0.61462233  0.25067016  0.02009909    -0.20400
C350        C  0.62555314  0.24291144  0.49172705    -0.07000
C351        C  0.64228467  0.25999047  0.46907681     0.13900
C352        C  0.64866064  0.28320491  0.47072427    -0.20500
C353        C  0.63909595  0.29003883  0.49446494    -0.07000
C354        C  0.62195765  0.27419861  0.02050268     0.13900
C355        C  0.61474071  0.28257951  0.04897851    -0.23800
H356        H  0.60333034  0.23883871  0.03958886     0.15200
H357        H  0.66138856  0.29625730  0.45343340     0.15200
C358        C  0.65441292  0.25453264  0.44393758    -0.23800
H359        H  0.60479200  0.26857344  0.06784256     0.05400
H360        H  0.60237561  0.28539789  0.53587626     0.08600
H361        H  0.63048593  0.29766436  0.06091574     0.08600
H362        H  0.64211618  0.24372624  0.42409249     0.08600
H363        H  0.65436729  0.24191639  0.95447744     0.08600
H364        H  0.66927705  0.27074748  0.43203697     0.05400
C365        C  0.60821032  0.37474327  0.97706319    -0.20400
C366        C  0.59210932  0.36647309  0.00321475    -0.07000
C367        C  0.58904260  0.34750574  0.52330033     0.13900
C368        C  0.60517180  0.34150575  0.52094497    -0.20500
C369        C  0.62417050  0.35388390  0.99853498    -0.07000
C370        C  0.62419532  0.36861780  0.97435988     0.13900
C371        C  0.64038980  0.37720082  0.94503203    -0.23800
H372        H  0.60838810  0.38620617  0.95861434     0.15200
H373        H  0.60371576  0.32843232  0.53759769     0.15200
C374        C  0.56919970  0.33441127  0.54767373    -0.23800
H375        H  0.63705077  0.38739671  0.92762594     0.05400
H376        H  0.64121398  0.36527091  0.43293195     0.08600
H377        H  0.65885169  0.38883866  0.95296438     0.08600
H378        H  0.55222299  0.32659398  0.53492983     0.08600
H379        H  0.57783820  0.35429103  0.07265720     0.08600
H380        H  0.56900098  0.31992254  0.55995734     0.05400
C381        C  0.91898326  0.49937014  0.34459974    -0.20400
C382        C  0.92200604  0.48581918  0.36692331    -0.07000
C383        C  0.94060368  0.48329280  0.36221538     0.13900
C384        C  0.95675308  0.49587565  0.33679994    -0.20500
C385        C  0.95490141  0.51101263  0.31601315    -0.07000
C386        C  0.93520330  0.51206488  0.31918261     0.13900
C387        C  0.93090609  0.52622880  0.29585196    -0.23800
H388        H  0.90443293  0.50089242  0.34797785     0.15200
H389        H  0.97139135  0.49444358  0.33388624     0.15200
C390        C  0.94330187  0.46701571  0.38340928    -0.23800
H391        H  0.91376863  0.52346315  0.30061005     0.05400
H392        H  0.93085765  0.52092325  0.27016198     0.08600
H393        H  0.94460686  0.54524097  0.29874237     0.08600
H394        H  0.92683967  0.44911098  0.38319136     0.08600
H395        H  0.94760138  0.47340709  0.40896975     0.08600
H396        H  0.95761996  0.46575456  0.37437538     0.05400
C397        C  0.93777101  0.48998002  0.13228064    -0.20400
C398        C  0.92597198  0.50025075  0.12376261    -0.07000
C399        C  0.93082899  0.52019470  0.14067690     0.13900
C400        C  0.94742614  0.52937109  0.16587958    -0.20500
C401        C  0.95955445  0.51928407  0.17452731    -0.07000
C402        C  0.95443191  0.49908193  0.15741179     0.13900
C403        C  0.96643299  0.48701098  0.16471835    -0.23800
H404        H  0.93403905  0.47477195  0.11879455     0.15200
H405        H  0.95110401  0.54480595  0.17859376     0.15200
C406        C  0.91942403  0.53251531  0.13122628    -0.23800
H407        H  0.96022324  0.47172987  0.14849064     0.05400
H408        H  0.96271346  0.48033159  0.19042037     0.08600
H409        H  0.98557774  0.49942917  0.16072677     0.08600
H410        H  0.90025337  0.52060609  0.13516357     0.08600
H411        H  0.92312350  0.53796942  0.10498441     0.08600
H412        H  0.92603731  0.54848026  0.14612308     0.05400
C413        C  0.74418371  0.38768654  0.02057067    -0.20400
C414        C  0.75462431  0.40571781  0.99688679    -0.07000
C415        C  0.74024801  0.40918723  0.48119166     0.13900
C416        C  0.71590959  0.39267492  0.48227561    -0.20500
C417        C  0.70546802  0.37341546  0.99989705    -0.07000
C418        C  0.71982968  0.37175032  0.02276556     0.13900
C419        C  0.71022793  0.35399658  0.05048773    -0.23800
H420        H  0.75514464  0.38600106  0.03760270     0.15200
H421        H  0.70505260  0.39364677  0.46416960     0.15200
C422        C  0.75045696  0.42915592  0.45668343    -0.23800
H423        H  0.71745661  0.36323538  0.07413767     0.05400
H424        H  0.71535196  0.34472894  0.55710739     0.08600
H425        H  0.69094731  0.34368899  0.05280254     0.08600
H426        H  0.76138352  0.42781807  0.43834579     0.08600
H427        H  0.76121673  0.44545089  0.96495453     0.08600
H428        H  0.73658114  0.42906265  0.44301655     0.05400
C429        C  0.50903765  0.45640141  0.14034067    -0.20400
C430        C  0.50199886  0.43361936  0.13279972    -0.07000
C431        C  0.48338371  0.41436236  0.15043008     0.13900
C432        C  0.47177808  0.41842559  0.17468000    -0.20500
C433        C  0.47836749  0.44127394  0.18187716    -0.07000
C434        C  0.49773967  0.46062639  0.16479454     0.13900
C435        C  0.50652438  0.48580803  0.17118815    -0.23800
H436        H  0.52336296  0.47102827  0.12652957     0.15200
H437        H  0.45725921  0.40354760  0.18782759     0.15200
C438        C  0.47496889  0.38947979  0.14276101    -0.23800
H439        H  0.52138877  0.49827123  0.15479176     0.05400
H440        H  0.51289822  0.49050388  0.19681913     0.08600
H441        H  0.49234633  0.48834554  0.16677060     0.08600
H442        H  0.48897763  0.38685426  0.14802627     0.08600
H443        H  0.46997536  0.38576043  0.11649754     0.08600
H444        H  0.45947205  0.37653937  0.15785102     0.05400
C445        C  0.48966567  0.45539025  0.34306651    -0.20400
C446        C  0.47407397  0.43661422  0.32260533    -0.07000
C447        C  0.47144987  0.41484794  0.32654819     0.13900
C448        C  0.48376165  0.41233266  0.35162973    -0.20500
C449        C  0.49829066  0.43079337  0.37302649    -0.07000
C450        C  0.50176677  0.45279149  0.36818712     0.13900
C451        C  0.51866550  0.47383519  0.38877455    -0.23800
H452        H  0.49211289  0.47220460  0.33985967     0.15200
H453        H  0.48134176  0.39557521  0.35538219     0.15200
C454        C  0.45600844  0.39423262  0.30449015    -0.23800
H455        H  0.52060464  0.49001029  0.37961890     0.05400
H456        H  0.53618214  0.47694762  0.38803417     0.08600
H457        H  0.51244626  0.47110346  0.41452157     0.08600
H458        H  0.46135746  0.39944749  0.27845655     0.08600
H459        H  0.43744700  0.38789134  0.30785940     0.08600
H460        H  0.45724120  0.37925889  0.31014880     0.05400
C461        C  0.39512232  0.48300139  0.35273231    -0.20400
C462        C  0.37863647  0.46361481  0.37198961    -0.07000
C463        C  0.37345614  0.44120569  0.36468064     0.13900
C464        C  0.38585704  0.43903701  0.33947664    -0.20500
C465        C  0.40330830  0.45863937  0.32124054    -0.07000
C466        C  0.40751305  0.48089766  0.32744687     0.13900
C467        C  0.42464692  0.50256246  0.30746797    -0.23800
H468        H  0.39882126  0.50009881  0.35811579     0.15200
H469        H  0.38213555  0.42189116  0.33443942     0.15200
C470        C  0.35436908  0.41935301  0.38249803    -0.23800
H471        H  0.42423599  0.51779835  0.31440753     0.05400
H472        H  0.42023848  0.49918354  0.28098531     0.08600
H473        H  0.44274707  0.50769270  0.31161337     0.08600
H474        H  0.33774560  0.41810442  0.38126214     0.08600
H475        H  0.35916924  0.41957655  0.40847539     0.08600
H476        H  0.35127582  0.40321816  0.37141121     0.05400
C477        C  0.41797962  0.48634754  0.16989768    -0.20400
C478        C  0.40738965  0.46276030  0.17955050    -0.07000
C479        C  0.38618516  0.44507241  0.16416214     0.13900
C480        C  0.37684120  0.45148120  0.13927872    -0.20500
C481        C  0.38769911  0.47492713  0.12956807    -0.07000
C482        C  0.40845755  0.49264565  0.14516524     0.13900
C483        C  0.42129519  0.51806988  0.13486253    -0.23800
H484        H  0.43407902  0.50008454  0.18143014     0.15200
H485        H  0.36093446  0.43802258  0.12700190     0.15200
C486        C  0.37314807  0.41939124  0.17320391    -0.23800
H487        H  0.43798052  0.52932028  0.14838435     0.05400
H488        H  0.41040211  0.52470637  0.14005410     0.08600
H489        H  0.42549324  0.51994476  0.10822500     0.08600
H490        H  0.36791619  0.41675431  0.19949460     0.08600
H491        H  0.38429198  0.41296924  0.16833141     0.08600
H492        H  0.35691460  0.40841404  0.15863392     0.05400
O493        O  0.44423865  0.42701791  0.72089111    -0.73100
O494        O  0.41247319  0.44109844  0.78908501    -0.74000
O495        O  0.41163910  0.43933208  0.71988300    -0.62700
O496        O  0.44523580  0.42885081  0.79008199    -0.71100
O497        O  0.47429724  0.46645683  0.78781754    -0.70600
O498        O  0.44070721  0.47693772  0.71801043    -0.61900
O499        O  0.44152243  0.47869660  0.78719931    -0.74400
O500        O  0.47324435  0.46475074  0.71880226    -0.73200
Cu501      Cu  0.42737694  0.43276700  0.75512851     1.04600
Cu502      Cu  0.45844052  0.47300219  0.75292617     1.04300
C503        C  0.46384130  0.44377163  0.70892639     0.93100
C504        C  0.42168471  0.46213746  0.79872355     0.92300
C505        C  0.42079792  0.45986291  0.70777569     0.84400
C506        C  0.46536525  0.44586673  0.79965088     0.90700
N507        N  0.88101457  0.47769239  0.56524310    -0.27400
N508        N  0.89931241  0.48300787  0.54743255    -0.35300
C509        C  0.91832166  0.49303460  0.56641335     0.00900
C510        C  0.91182909  0.49433662  0.59779151     0.07000
C511        C  0.88801185  0.48439868  0.59642563    -0.06100
H512        H  0.93560361  0.49883198  0.55798021     0.07600
H513        H  0.87656470  0.48163317  0.61662547     0.08800
Cu514      Cu  0.89813689  0.47669344  0.49833874     0.44200
Cu515      Cu  0.84786626  0.46072058  0.54480280     0.42000
Cu516      Cu  0.84612733  0.44859190  0.95024614     0.43900
N517        N  0.89653679  0.46622176  0.94678709    -0.34800
N518        N  0.87790097  0.45932732  0.92886993    -0.29000
C519        C  0.88414144  0.46264606  0.89693964    -0.05100
C520        C  0.90775903  0.47170062  0.89499738     0.07100
C521        C  0.91502389  0.47392358  0.92707480     0.00900
H522        H  0.87275089  0.46001463  0.87682227     0.08500
H523        H  0.93283036  0.48253564  0.93558337     0.07600
N524        N  0.81710994  0.43850641  0.97908293    -0.36200
N525        N  0.81760976  0.44321202  0.51665315    -0.28400
C526        C  0.79565350  0.43283556  0.52813070    -0.03700
C527        C  0.78031383  0.42251343  0.50212376     0.05000
C528        C  0.79477500  0.42597546  0.96887612     0.03000
H529        H  0.79115673  0.43242306  0.55367445     0.08200
H530        H  0.78935505  0.41945433  0.94421367     0.07000
N531        N  0.52866917  0.41871606  0.93554849    -0.27400
N532        N  0.52516575  0.43269531  0.95235825    -0.35300
C533        C  0.51768682  0.44240514  0.93208377     0.00900
C534        C  0.51652483  0.43436611  0.90079123     0.07000
C535        C  0.52331351  0.41909597  0.90384521    -0.06100
H536        H  0.51184275  0.45312212  0.94005828     0.07600
H537        H  0.52353443  0.40846620  0.88472831     0.08800
Cu538      Cu  0.52681529  0.43541900  0.00258795     0.44200
Cu539      Cu  0.53953642  0.39937482  0.95793584     0.42000
Cu540      Cu  0.53928930  0.39801567  0.54936532     0.43900
N541        N  0.51075904  0.41761236  0.55345512    -0.34800
N542        N  0.52067075  0.40964434  0.57138730    -0.29000
C543        C  0.51646191  0.41093864  0.60335300    -0.05100
C544        C  0.50320862  0.42013049  0.60510792     0.07100
C545        C  0.50007431  0.42420120  0.57303402     0.00900
H546        H  0.52311266  0.40621724  0.62360466     0.08500
H547        H  0.49081655  0.43160421  0.56449362     0.07600
N548        N  0.55474744  0.38615961  0.51939716    -0.36200
N549        N  0.55445382  0.38657108  0.98742160    -0.28400
C550        C  0.56577647  0.37720005  0.97701995    -0.03700
C551        C  0.57558569  0.37353424  0.00394441     0.05000
C552        C  0.56782602  0.37868941  0.52988425     0.03000
H553        H  0.56761447  0.37424032  0.95152868     0.08200
H554        H  0.57255232  0.37900776  0.55524371     0.07000
C555        C  0.64014395  0.34552617  0.49727267     0.03000
C556        C  0.63207227  0.32188460  0.49387952    -0.13100
C557        C  0.64764333  0.31514727  0.49600169     0.00500
C558        C  0.67163753  0.33249454  0.49963109    -0.11700
C559        C  0.67992986  0.35617796  0.50308822     0.03000
C560        C  0.66404132  0.36249890  0.50243663    -0.11100
H561        H  0.61366614  0.30877421  0.48959991     0.08600
H562        H  0.68386679  0.32753245  0.50022860     0.06100
H563        H  0.67030777  0.38062750  0.50638904     0.06000
N564        N  0.57578885  0.11967776  0.93233587    -0.27400
N565        N  0.57371606  0.10224612  0.94920559    -0.35300
C566        C  0.56805868  0.08468435  0.92890176     0.00900
C567        C  0.56673619  0.09142248  0.89752003     0.07000
C568        C  0.57165442  0.11373077  0.90042456    -0.06100
H569        H  0.56541538  0.06830637  0.93639422     0.07600
H570        H  0.57195958  0.12468154  0.88107038     0.08800
Cu571      Cu  0.57936846  0.10325606  0.99862924     0.44200
Cu572      Cu  0.58482854  0.15031607  0.95510701     0.42000
Cu573      Cu  0.58707210  0.15132469  0.53961507     0.43900
N574        N  0.55475934  0.09856255  0.54357241    -0.34800
N575        N  0.56697789  0.11797497  0.56095579    -0.29000
C576        C  0.56551517  0.11205717  0.59288622    -0.05100
C577        C  0.55150083  0.08776102  0.59568430     0.07100
C578        C  0.54520549  0.07986117  0.56383258     0.00900
H579        H  0.57499528  0.12444961  0.61240138     0.08500
H580        H  0.53627935  0.06193672  0.55558885     0.07600
N581        N  0.60333748  0.18163214  0.51060962    -0.36200
N582        N  0.59780642  0.18006527  0.98308373    -0.28400
C583        C  0.60387287  0.20095654  0.97114435    -0.03700
C584        C  0.61310691  0.21701137  0.99636239     0.05000
C585        C  0.61066076  0.20334123  0.52010668     0.03000
H586        H  0.60113216  0.20388493  0.94601596     0.08200
H587        H  0.60990418  0.20792764  0.54517273     0.07000
O588        O  0.55914278  0.98581576  0.78039842    -0.73100
O589        O  0.56322943  0.02895520  0.71045604    -0.74000
O590        O  0.56575153  0.03017589  0.77958499    -0.62700
O591        O  0.55641188  0.98440999  0.71092206    -0.71100
O592        O  0.51820633  0.96705567  0.71391677    -0.70600
O593        O  0.52735056  0.01231262  0.78269253    -0.61900
O594        O  0.52502529  0.01175181  0.71338876    -0.74400
O595        O  0.52088568  0.96809397  0.78347194    -0.73200
Cu596      Cu  0.56244635  0.00793173  0.74517556     1.04600
Cu597      Cu  0.52153171  0.98917758  0.74840933     1.04300
C598        C  0.53944983  0.97017305  0.79334681     0.93100
C599        C  0.54499674  0.02763942  0.70118758     0.92300
C600        C  0.54792947  0.02833296  0.79214959     0.84400
C601        C  0.53574722  0.96829027  0.70159844     0.90700
O602        O  0.03129519  0.57982626  0.78803123    -0.73100
O603        O  0.98363835  0.55032667  0.71705493    -0.74000
O604        O  0.98238215  0.54565825  0.78587297    -0.62700
O605        O  0.03244494  0.58432033  0.71918173    -0.71100
O606        O  0.03831160  0.55624453  0.71482512    -0.70600
O607        O  0.98828224  0.51759707  0.78196107    -0.61900
O608        O  0.98934868  0.52217103  0.71290379    -0.74400
O609        O  0.03758777  0.55208731  0.78411356    -0.73200
Cu610      Cu  0.00724682  0.56597546  0.75274650     1.04600
Cu611      Cu  0.01360474  0.53603351  0.74833260     1.04300
C612        C  0.04230091  0.57103161  0.79723713     0.93100
C613        C  0.97881203  0.53147859  0.70359409     0.92300
C614        C  0.97701616  0.52535302  0.79416690     0.84400
C615        C  0.04329121  0.57639220  0.70619703     0.90700
N616        N  0.36055393  0.49238552  0.93380303    -0.27400
N617        N  0.36232793  0.47714552  0.95080703    -0.35300
C618        C  0.36956823  0.46714151  0.93090387     0.00900
C619        C  0.37244262  0.47638350  0.89972617     0.07000
C620        C  0.36686796  0.49258766  0.90244876    -0.06100
H621        H  0.37418591  0.45539974  0.93914821     0.07600
H622        H  0.36823336  0.50430722  0.88342009     0.08800
Cu623      Cu  0.36024653  0.47116243  0.50193518     0.44200
Cu624      Cu  0.35199895  0.51364874  0.95550821     0.42000
Cu625      Cu  0.35827693  0.51544107  0.54203729     0.43900
N626        N  0.36705080  0.47823332  0.55107889    -0.34800
N627        N  0.36695905  0.49501034  0.56603936    -0.29000
C628        C  0.37403180  0.49649663  0.59722126    -0.05100
C629        C  0.37900937  0.47993373  0.60181341     0.07100
C630        C  0.37416929  0.46856972  0.57213778     0.00900
H631        H  0.37543597  0.50874400  0.61498846     0.08500
H632        H  0.37657493  0.45491599  0.56589674     0.07600
N633        N  0.34814589  0.53261248  0.51261511    -0.36200
N634        N  0.34573600  0.53401284  0.98478312    -0.28400
C635        C  0.34171821  0.54991632  0.97456450    -0.03700
C636        C  0.33906797  0.55692830  0.49564678     0.05000
C637        C  0.34560405  0.54950195  0.52240117     0.03000
H638        H  0.34046335  0.55351207  0.94905472     0.08200
H639        H  0.34973636  0.55672931  0.54682505     0.07000
C640        C  0.33626243  0.63874664  0.48925654     0.03000
C641        C  0.35750889  0.66101801  0.49051417    -0.13100
C642        C  0.35763993  0.68129428  0.49244437     0.00500
C643        C  0.33637794  0.67907476  0.49495948    -0.11700
C644        C  0.31504778  0.65696749  0.49374757     0.03000
C645        C  0.31507793  0.63685868  0.49034102    -0.11100
H646        H  0.37392278  0.66258180  0.49036133     0.08600
H647        H  0.33639348  0.69459500  0.49817289     0.06100
H648        H  0.29869036  0.61974620  0.48850702     0.06000
N649        N  0.14177177  0.63841237  0.56805972    -0.27400
N650        N  0.12335614  0.63389518  0.55138829    -0.35300
C651        C  0.10527459  0.62594738  0.57203626     0.00900
C652        C  0.11245148  0.62514581  0.60327914     0.07000
C653        C  0.13582112  0.63346402  0.60000499    -0.06100
H654        H  0.08770536  0.61960130  0.56447349     0.07600
H655        H  0.14744751  0.63502609  0.61903432     0.08800
Cu656      Cu  0.12152974  0.63430343  0.50107260     0.44200
Cu657      Cu  0.17267949  0.64736004  0.54558042     0.42000
Cu658      Cu  0.17072843  0.63634306  0.95980891     0.43900
N659        N  0.12252334  0.62524046  0.95259044    -0.34800
N660        N  0.13956230  0.62591984  0.93701255    -0.29000
C661        C  0.13261261  0.61818073  0.90616772    -0.05100
C662        C  0.11004151  0.61223434  0.90246749     0.07100
C663        C  0.10433503  0.61713969  0.93227323     0.00900
H664        H  0.14323051  0.61704391  0.88794652     0.08500
H665        H  0.08784144  0.61428576  0.93904989     0.07600
N666        N  0.19974037  0.64676137  0.98852503    -0.36200
N667        N  0.19873107  0.65125066  0.51521817    -0.28400
C668        C  0.21883353  0.65424136  0.52450468    -0.03700
C669        C  0.23036490  0.65428501  0.49667218     0.05000
C670        C  0.21976282  0.65005671  0.97816400     0.03000
H671        H  0.22435500  0.65566681  0.54971501     0.08200
H672        H  0.22265781  0.64677945  0.95336166     0.07000
N673        N  0.51987666  0.87887852  0.93333914    -0.27400
N674        N  0.53536103  0.89849684  0.94866084    -0.35300
C675        C  0.54233631  0.91685643  0.92856376     0.00900
C676        C  0.53050908  0.90850258  0.89914118     0.07000
C677        C  0.51661269  0.88425045  0.90292813    -0.06100
H678        H  0.55437878  0.93505183  0.93540230     0.07600
H679        H  0.50486117  0.87136016  0.88518408     0.08800
Cu680      Cu  0.54388242  0.89959540  0.99746938     0.44200
Cu681      Cu  0.50203674  0.84620646  0.95647285     0.42000
Cu682      Cu  0.48781747  0.84030698  0.54801128     0.43900
N683        N  0.52749580  0.89115115  0.55450342    -0.34800
N684        N  0.51008413  0.87263098  0.57034865    -0.29000
C685        C  0.50856556  0.87917136  0.60076046    -0.05100
C686        C  0.52610894  0.90283010  0.60417396     0.07100
C687        C  0.53761714  0.90982543  0.57430575     0.00900
H688        H  0.49495553  0.86790876  0.61840476     0.08500
H689        H  0.55089776  0.92760613  0.56646255     0.07600
N690        N  0.46894920  0.81068532  0.51874952    -0.36200
N691        N  0.48223786  0.81671934  0.98648776    -0.28400
C692        C  0.46454476  0.79526338  0.97680174    -0.03700
C693        C  0.45371166  0.78110337  0.00431332     0.05000
C694        C  0.45166197  0.78885832  0.52850308     0.03000
H695        H  0.45930963  0.79061817  0.95148186     0.08200
H696        H  0.44492009  0.78433957  0.55330808     0.07000
C697        C  0.41472239  0.75175342  0.98046708    -0.20400
C698        C  0.43144439  0.75709634  0.00471684    -0.07000
C699        C  0.41681782  0.73220299  0.52159537     0.13900
C700        C  0.39590059  0.70979746  0.51850792    -0.20500
C701        C  0.37998746  0.70483899  0.49332967    -0.07000
C702        C  0.39329555  0.72966707  0.97906794     0.13900
C703        C  0.37685056  0.72465808  0.95111425    -0.23800
H704        H  0.41829553  0.76503316  0.96250439     0.15200
H705        H  0.39174213  0.69611472  0.53614002     0.15200
C706        C  0.43368845  0.73610760  0.54824925    -0.23800
H707        H  0.38466421  0.73947735  0.93320991     0.05400
H708        H  0.35301940  0.71353174  0.44830977     0.08600
H709        H  0.37274067  0.70881943  0.93777169     0.08600
H710        H  0.43491338  0.74830980  0.56686122     0.08600
H711        H  0.46141886  0.74945458  0.03985452     0.08600
H712        H  0.42793309  0.71948101  0.56128801     0.05400
C713        C  0.29635087  0.67529323  0.98268280    -0.20400
C714        C  0.29290520  0.65537148  0.49468012    -0.07000
C715        C  0.27590942  0.64293635  0.51963023     0.13900
C716        C  0.25569294  0.64289647  0.51952733    -0.20500
C717        C  0.25213308  0.65512330  0.49532759    -0.07000
C718        C  0.27529386  0.67365883  0.98147019     0.13900
C719        C  0.27250059  0.68740578  0.95532418    -0.23800
H720        H  0.30961696  0.68532870  0.96396667     0.15200
H721        H  0.24252360  0.63316463  0.53844689     0.15200
C722        C  0.27942646  0.63057047  0.54716461    -0.23800
H723        H  0.28895856  0.69906705  0.94117462     0.05400
H724        H  0.26432462  0.69519790  0.45850375     0.08600
H725        H  0.25893244  0.67540730  0.93750816     0.08600
H726        H  0.29617781  0.64315086  0.55981242     0.08600
H727        H  0.28982963  0.62651015  0.05281550     0.08600
H728        H  0.26513131  0.62316450  0.56569752     0.05400
C729        C  0.32549748  0.60166510  0.51602200    -0.20400
C730        C  0.33609411  0.61729179  0.48938127    -0.07000
C731        C  0.35194373  0.61928243  0.97364238     0.13900
C732        C  0.35112277  0.59857482  0.97511827    -0.20500
C733        C  0.33700176  0.57709108  0.49390403    -0.07000
C734        C  0.32567346  0.58155918  0.51861000     0.13900
C735        C  0.31290703  0.56493231  0.54709043    -0.23800
H736        H  0.31728670  0.60543787  0.53519499     0.15200
H737        H  0.35927776  0.59505076  0.95559353     0.15200
C738        C  0.36256096  0.63505312  0.94381680    -0.23800
H739        H  0.30271000  0.56983707  0.56138592     0.05400
H740        H  0.32544475  0.56536532  0.56431373     0.08600
H741        H  0.30045381  0.54682536  0.53795593     0.08600
H742        H  0.37833585  0.65236690  0.95064551     0.08600
H743        H  0.34955826  0.63749349  0.93246541     0.08600
H744        H  0.36795232  0.62747254  0.92499298     0.05400
C745        C  0.08374266  0.61342871  0.86337263    -0.20400
C746        C  0.09458030  0.60251634  0.87358191    -0.07000
C747        C  0.08882540  0.58171739  0.85811085     0.13900
C748        C  0.07190533  0.57208262  0.83322730    -0.20500
C749        C  0.06059297  0.58272971  0.82317566    -0.07000
C750        C  0.06708268  0.60410806  0.83823880     0.13900
C751        C  0.05678908  0.61748313  0.82848280    -0.23800
H752        H  0.08831484  0.62941038  0.87543003     0.15200
H753        H  0.06733094  0.55590633  0.82186527     0.15200
C754        C  0.09964373  0.56902311  0.86864585    -0.23800
H755        H  0.06445147  0.63393511  0.84263090     0.05400
H756        H  0.03766424  0.60662223  0.83332839     0.08600
H757        H  0.06040706  0.62252174  0.80209568     0.08600
H758        H  0.09651464  0.56476378  0.89528758     0.08600
H759        H  0.11871311  0.58013756  0.86357682     0.08600
H760        H  0.09212687  0.55233084  0.85516580     0.05400
C761        C  0.07776887  0.58449308  0.67495059    -0.20400
C762        C  0.06183657  0.59040605  0.68112857    -0.07000
C763        C  0.06360530  0.60875357  0.66246279     0.13900
C764        C  0.08108827  0.62039656  0.63829821    -0.20500
C765        C  0.09679250  0.61428016  0.63208018    -0.07000
C766        C  0.09505866  0.59600094  0.65056584     0.13900
C767        C  0.11035877  0.58751297  0.64361954    -0.23800
H768        H  0.07651867  0.57046285  0.68900828     0.15200
H769        H  0.08224112  0.63413277  0.62354942     0.15200
C770        C  0.04676366  0.61570839  0.66663853    -0.23800
H771        H  0.10516515  0.57177934  0.65864167     0.05400
H772        H  0.12877904  0.60136741  0.64966484     0.08600
H773        H  0.10895669  0.58266696  0.61736531     0.08600
H774        H  0.04847858  0.62285851  0.69157821     0.08600
H775        H  0.02856151  0.60025793  0.66269922     0.08600
H776        H  0.05024005  0.62954374  0.64872877     0.05400
C777        C  0.50906768  0.91888313  0.63836917    -0.20400
C778        C  0.52850050  0.91863943  0.63036236    -0.07000
C779        C  0.55004604  0.93433351  0.64596108     0.13900
C780        C  0.55170440  0.95014746  0.66900421    -0.20500
C781        C  0.53238245  0.95084398  0.67687708    -0.07000
C782        C  0.51065899  0.93483250  0.66117067     0.13900
C783        C  0.48909728  0.93452326  0.66738052    -0.23800
H784        H  0.49265035  0.90688078  0.62597727     0.15200
H785        H  0.56831004  0.96201476  0.68099830     0.15200
C786        C  0.57117088  0.93402124  0.63907816    -0.23800
H787        H  0.47419719  0.92147724  0.65183343     0.05400
H788        H  0.49278984  0.95202886  0.66159135     0.08600
H789        H  0.48341287  0.92965764  0.69336358     0.08600
H790        H  0.57671185  0.93886436  0.61307904     0.08600
H791        H  0.56690461  0.91620783  0.64416128     0.08600
H792        H  0.58625594  0.94667635  0.65466760     0.05400
C793        C  0.55453614  0.94261631  0.86187777    -0.20400
C794        C  0.53226954  0.92310430  0.87083348    -0.07000
C795        C  0.51245429  0.91926191  0.85442921     0.13900
C796        C  0.51554707  0.93474525  0.82917084    -0.20500
C797        C  0.53786214  0.95427420  0.81990197    -0.07000
C798        C  0.55769259  0.95825291  0.83682025     0.13900
C799        C  0.58226927  0.97910030  0.82957035    -0.23800
H800        H  0.56966882  0.94572113  0.87481230     0.15200
H801        H  0.50023943  0.93157289  0.81673078     0.15200
C802        C  0.48789165  0.89969490  0.86433574    -0.23800
H803        H  0.59526388  0.97965774  0.84614003     0.07200
H804        H  0.58346952  0.99563341  0.83308759     0.08600
H805        H  0.58727495  0.97817736  0.80404570     0.08600
H806        H  0.48530172  0.90056140  0.89105893     0.08600
H807        H  0.48452135  0.88247622  0.85826468     0.08600
H808        H  0.47462348  0.90088224  0.85111515     0.05400
C809        C  0.57088802  0.06824545  0.81579256    -0.20400
C810        C  0.55126055  0.04486129  0.81788169    -0.07000
C811        C  0.53591013  0.03756117  0.84515277     0.13900
C812        C  0.54097491  0.05368264  0.86990940    -0.20500
C813        C  0.56080703  0.07685840  0.86813599    -0.07000
C814        C  0.57582790  0.08440236  0.84057789     0.13900
C815        C  0.59763319  0.10900476  0.83796435    -0.23800
H816        H  0.58258345  0.07381740  0.79483641     0.15200
H817        H  0.52966745  0.04801537  0.89133489     0.15200
C818        C  0.51486602  0.01259030  0.84937670    -0.23800
H819        H  0.60788498  0.11151501  0.81546221     0.05400
H820        H  0.60899456  0.11277960  0.85954041     0.08600
H821        H  0.59287871  0.12179410  0.83685902     0.08600
H822        H  0.52036661  0.00036755  0.84865929     0.08600
H823        H  0.50202186  0.00818728  0.82963563     0.08600
H824        H  0.50581502  0.00984677  0.87320559     0.05400
C825        C  0.56903694  0.08005792  0.64245116    -0.20400
C826        C  0.54895511  0.07339994  0.62463842    -0.07000
C827        C  0.52725638  0.05280458  0.63392464     0.13900
C828        C  0.52651729  0.03851936  0.65927783    -0.20500
C829        C  0.54688517  0.04435449  0.67591441    -0.07000
C830        C  0.56835762  0.06599337  0.66805583     0.13900
C831        C  0.59066363  0.07483065  0.68659639    -0.23800
H832        H  0.58558095  0.09612143  0.63564918     0.15200
H833        H  0.50988402  0.02245563  0.66573636     0.15200
C834        C  0.50473236  0.04621196  0.61799830    -0.23800
H835        H  0.60507908  0.09278028  0.67848809     0.05400
H836        H  0.59661346  0.06321550  0.68233110     0.08600
H837        H  0.58777363  0.07559654  0.71325164     0.08600
H838        H  0.50458019  0.04202817  0.59177048     0.08600
H839        H  0.50276764  0.06098215  0.62007287     0.08600
H840        H  0.48927968  0.03053132  0.62994980     0.05400
C841        C  0.61616327  0.24996123  0.51560532    -0.20400
C842        C  0.62149525  0.24207177  0.99490644    -0.07000
C843        C  0.63657223  0.25765073  0.96969983     0.13900
C844        C  0.64385932  0.28116899  0.97009741    -0.20500
C845        C  0.63663552  0.28961985  0.99498313    -0.07000
C846        C  0.62288670  0.27324241  0.51755448     0.13900
C847        C  0.61350395  0.27991323  0.54541110    -0.23800
H848        H  0.60347051  0.23718378  0.53312794     0.15200
H849        H  0.65546200  0.29316973  0.95095064     0.15200
C850        C  0.64611140  0.25014204  0.94323301    -0.23800
H851        H  0.60257932  0.26497250  0.56264318     0.05400
H852        H  0.60327891  0.28792828  0.04044482     0.08600
H853        H  0.62824672  0.29447797  0.55957391     0.08600
H854        H  0.63197884  0.23766609  0.92640791     0.08600
H855        H  0.66155310  0.24539719  0.45577111     0.08600
H856        H  0.65960343  0.26529063  0.92800620     0.05400
C857        C  0.60902792  0.37504802  0.47788130    -0.20400
C858        C  0.59128937  0.36490085  0.50189797    -0.07000
C859        C  0.59185663  0.35135134  0.02714131     0.13900
C860        C  0.60791655  0.34529586  0.02441199    -0.20500
C861        C  0.62334087  0.35222770  0.49763529    -0.07000
C862        C  0.62500330  0.36887372  0.47532798     0.13900
C863        C  0.64288879  0.37945949  0.44794357    -0.23800
H864        H  0.61049163  0.38803560  0.46105885     0.15200
H865        H  0.60784250  0.33375088  0.04263841     0.15200
C866        C  0.57422783  0.34064999  0.05481018    -0.23800
H867        H  0.64046070  0.39074392  0.43142601     0.05400
H868        H  0.63780632  0.36199508  0.93164839     0.08600
H869        H  0.66082415  0.39058728  0.45796070     0.08600
H870        H  0.55626248  0.33194227  0.04493370     0.08600
H871        H  0.57098470  0.34636194  0.56717614     0.08600
H872        H  0.57500153  0.32721109  0.06860883     0.05400
C873        C  0.92348584  0.50074304  0.84976142    -0.20400
C874        C  0.92348403  0.48304162  0.86651380    -0.07000
C875        C  0.93992582  0.47814541  0.85795358     0.13900
C876        C  0.95683221  0.49196418  0.83385280    -0.20500
C877        C  0.95782501  0.51070194  0.81819665    -0.07000
C878        C  0.94041872  0.51471357  0.82575328     0.13900
C879        C  0.93923489  0.53345813  0.80881484    -0.23800
H880        H  0.91068327  0.50427299  0.85647526     0.15200
H881        H  0.96967099  0.48836581  0.82778618     0.15200
C882        C  0.93941992  0.45811023  0.87378078    -0.23800
H883        H  0.92363085  0.53291871  0.81663592     0.05400
H884        H  0.93812299  0.53087065  0.78182130     0.08600
H885        H  0.95484975  0.55111855  0.81498771     0.08600
H886        H  0.92198426  0.44145717  0.87011384     0.08600
H887        H  0.94294725  0.46118987  0.90044384     0.08600
H888        H  0.95281659  0.45604482  0.86300261     0.05400
C889        C  0.93944400  0.49270330  0.63334630    -0.20400
C890        C  0.92731964  0.50286520  0.62649001    -0.07000
C891        C  0.93186788  0.52212453  0.64493388     0.13900
C892        C  0.94846946  0.53071983  0.67010944    -0.20500
C893        C  0.96090084  0.52070817  0.67716358    -0.07000
C894        C  0.95611841  0.50122208  0.65840470     0.13900
C895        C  0.96854290  0.48936081  0.66380501    -0.23800
H896        H  0.93595109  0.47805932  0.61861819     0.15200
H897        H  0.95192781  0.54564013  0.68404173     0.15200
C898        C  0.92007182  0.53431081  0.63712950    -0.23800
H899        H  0.96260541  0.47473539  0.64640204     0.05400
H900        H  0.96491445  0.48178442  0.68899983     0.08600
H901        H  0.98765281  0.50217951  0.65999484     0.08600
H902        H  0.90089855  0.52195843  0.64068878     0.08600
H903        H  0.92383364  0.54069090  0.61126454     0.08600
H904        H  0.92631714  0.54965447  0.65323386     0.05400
C905        C  0.74379087  0.38981859  0.52852479    -0.20400
C906        C  0.75444834  0.40712325  0.50378221    -0.07000
C907        C  0.74028821  0.40832118  0.97535591     0.13900
C908        C  0.71590105  0.39201261  0.97694942    -0.20500
C909        C  0.70536434  0.37448757  0.50579380    -0.07000
C910        C  0.71942231  0.37368958  0.53014017     0.13900
C911        C  0.70937321  0.35652637  0.55856684    -0.23800
H912        H  0.75457036  0.38866180  0.54656364     0.15200
H913        H  0.70490388  0.39357405  0.95983778     0.15200
C914        C  0.75049132  0.42864901  0.95148549    -0.23800
H915        H  0.71557512  0.36632478  0.58199292     0.05400
H916        H  0.71551857  0.34175785  0.04688837     0.08600
H917        H  0.69000563  0.34566691  0.55940852     0.08600
H918        H  0.76151575  0.42759501  0.93295620     0.08600
H919        H  0.76119928  0.44616632  0.46966076     0.08600
H920        H  0.73662456  0.42873712  0.93809581     0.05400
C921        C  0.49941824  0.44872850  0.63433880    -0.20400
C922        C  0.49517677  0.42638370  0.63409062    -0.07000
C923        C  0.48132952  0.41003729  0.65915146     0.13900
C924        C  0.47165329  0.41637584  0.68351760    -0.20500
C925        C  0.47560538  0.43868486  0.68353140    -0.07000
C926        C  0.48995820  0.45519315  0.65869745     0.13900
C927        C  0.49468127  0.47929704  0.65661268    -0.23800
H928        H  0.50995551  0.46113144  0.61486091     0.15200
H929        H  0.46075369  0.40372842  0.70254630     0.15200
C930        C  0.47580363  0.38561790  0.65947899    -0.23800
H931        H  0.50507808  0.48914537  0.63440757     0.05400
H932        H  0.50485949  0.48978204  0.67827400     0.08600
H933        H  0.47790498  0.47775873  0.65541478     0.08600
H934        H  0.49211284  0.38648240  0.66262776     0.08600
H935        H  0.46727665  0.37667336  0.63609758     0.08600
H936        H  0.46379055  0.37479998  0.67998798     0.05400
C937        C  0.49898086  0.46200830  0.83775320    -0.20400
C938        C  0.47873043  0.44207542  0.82439799    -0.07000
C939        C  0.47238212  0.41944523  0.83449199     0.13900
C940        C  0.48585529  0.41757766  0.85832035    -0.20500
C941        C  0.50528317  0.43753373  0.87255152    -0.07000
C942        C  0.51229551  0.46002978  0.86161226     0.13900
C943        C  0.53413925  0.48201144  0.87438450    -0.23800
H944        H  0.50438479  0.47939234  0.82984197     0.15200
H945        H  0.48069029  0.40038273  0.86682493     0.15200
C946        C  0.45157675  0.39706517  0.82064175    -0.23800
H947        H  0.53776245  0.49800727  0.86163404     0.05400
H948        H  0.54940018  0.48110321  0.87038778     0.08600
H949        H  0.53231298  0.48403830  0.90093411     0.08600
H950        H  0.45342085  0.39692134  0.79357033     0.08600
H951        H  0.43521205  0.39549522  0.82697610     0.08600
H952        H  0.44994882  0.38126124  0.83078488     0.05400
C953        C  0.40405300  0.49237731  0.85808319    -0.20400
C954        C  0.38359928  0.47285529  0.87178633    -0.07000
C955        C  0.37504774  0.45021987  0.86018233     0.13900
C956        C  0.38778095  0.44753565  0.83621904    -0.20500
C957        C  0.40897064  0.46689314  0.82331657    -0.07000
C958        C  0.41694363  0.48979953  0.83406201     0.13900
C959        C  0.43892227  0.51170878  0.82083862    -0.23800
H960        H  0.41038241  0.50971827  0.86705227     0.15200
H961        H  0.38110071  0.42999741  0.82781904     0.15200
C962        C  0.35215574  0.42885514  0.87234046    -0.23800
H963        H  0.44197237  0.52786445  0.83179187     0.05400
H964        H  0.43751062  0.51299215  0.79385656     0.08600
H965        H  0.45434065  0.51142278  0.82673817     0.08600
H966        H  0.33793528  0.43140916  0.86846861     0.08600
H967        H  0.35326971  0.42578582  0.89880333     0.08600
H968        H  0.34740557  0.41275886  0.85909155     0.05400
C969        C  0.41858317  0.48780237  0.67218073    -0.20400
C970        C  0.40864497  0.46433730  0.68179942    -0.07000
C971        C  0.38796296  0.44621544  0.66591305     0.13900
C972        C  0.37839528  0.45213602  0.64070423    -0.20500
C973        C  0.38863004  0.47550927  0.63097497    -0.07000
C974        C  0.40894652  0.49362321  0.64701391     0.13900
C975        C  0.42133371  0.51901540  0.63676301    -0.23800
H976        H  0.43428915  0.50185118  0.68411949     0.15200
H977        H  0.36287057  0.43833598  0.62809164     0.15200
C978        C  0.37590699  0.42057616  0.67453071    -0.23800
H979        H  0.43796339  0.53051191  0.65030227     0.05400
H980        H  0.41015930  0.52530087  0.64207481     0.08600
H981        H  0.42560212  0.52103269  0.61014046     0.08600
H982        H  0.36994615  0.41738738  0.70052069     0.08600
H983        H  0.38801896  0.41521133  0.67046533     0.08600
H984        H  0.36022261  0.40913459  0.65913802     0.05400
loop_ 
_geom_bond_atom_site_label_1 
_geom_bond_atom_site_label_2 
_geom_bond_distance 
_geom_bond_site_symmetry_2 
_ccdc_geom_bond_type 
O1           Cu9   2.014       .  S
O1           C11   1.280       .  A
O2           Cu9   2.016       .  S
O2           C12   1.280       .  A
O3           Cu9   2.003       .  S
O3           C13   1.276       .  A
O4           Cu9   2.004       .  S
O4           C14   1.276       .  A
O5          Cu10   1.997       .  S
O5           C14   1.278       .  A
O6          Cu10   2.001       .  S
O6           C13   1.278       .  A
O7          Cu10   1.991       .  S
O7           C12   1.274       .  A
O8          Cu10   1.987       .  S
O8           C11   1.274       .  A
Cu9         Cu10   2.364       .  S
C11         C433   1.488       .  S
C12         C465   1.487       .  S
C13         C478   1.492       .  S
C14         C446   1.484       .  S
N15          N16   1.320       .  A
N15          C19   1.348       .  A
N15         Cu23   2.081       .  S
N16          C17   1.338       .  A
N16         Cu22   2.044   1_554  S
C17          C18   1.376       .  A
C17          H20   1.082       .  S
C18         C398   1.472       .  S
C18          C19   1.387       .  A
C19          H21   1.082       .  S
Cu22        N517   2.044       .  S
Cu23         N33   2.083       .  S
Cu24         N26   2.081       .  S
Cu24         N32   2.084       .  S
N25          N26   1.319       .  A
N25          C29   1.337       .  A
N25        Cu514   2.041       .  S
N26          C27   1.349       .  A
C27          C28   1.390       .  A
C27          H30   1.082       .  S
C28         C382   1.476       .  S
C28          C29   1.378       .  A
C29          H31   1.082       .  S
N32         N525   1.325       .  A
N32          C36   1.344       .  A
N33         N524   1.324   1_554  A
N33          C34   1.345       .  A
C34          C35   1.384   1_554  A
C34          H37   1.081       .  S
C35         C414   1.479       .  S
C35         C528   1.383       .  A
C36         C527   1.384       .  A
C36          H38   1.080       .  S
N39          N40   1.319       .  A
N39          C43   1.349       .  A
N39         Cu47   2.081       .  S
N40          C41   1.337       .  A
N40         Cu46   2.038       .  S
C41          C42   1.377       .  A
C41          H44   1.081       .  S
C42         C449   1.474       .  S
C42          C43   1.389       .  A
C43          H45   1.082       .  S
Cu46        N541   2.038       .  S
Cu47         N57   2.084       .  S
Cu48         N50   2.062       .  S
Cu48         N56   2.064       .  S
N49          N50   1.320       .  A
N49          C53   1.340       .  A
N49        Cu538   2.053       .  S
N50          C51   1.345       .  A
C51          C52   1.383       .  A
C51          H54   1.081       .  S
C52         C430   1.471       .  S
C52          C53   1.379       .  A
C53          H55   1.082       .  S
N56         N549   1.322   1_554  A
N56          C60   1.343       .  A
N57         N548   1.325       .  A
N57          C58   1.345       .  A
C58          C59   1.384       .  A
C58          H61   1.081       .  S
C59         C858   1.484       .  S
C59         C552   1.385       .  A
C60         C551   1.383       .  A
C60          H62   1.080       .  S
C63         C369   1.479       .  S
C63          C64   1.403       .  A
C63          C68   1.403       .  A
C64          C65   1.402       .  A
C64          H69   1.083       .  S
C65         C845   1.484       .  S
C65          C66   1.403       .  A
C66          C67   1.405       .  A
C66          H70   1.084       .  S
C67         C417   1.485       .  S
C67          C68   1.403       .  A
C68          H71   1.083   1_556  S
N72          N73   1.321       .  A
N72          C76   1.346       .  A
N72         Cu80   2.070       .  S
N73          C74   1.341       .  A
N73         Cu79   2.062       .  S
C74          C75   1.380       .  A
C74          H77   1.082       .  S
C75         C321   1.475       .  S
C75          C76   1.384       .  A
C76          H78   1.081       .  S
Cu79        N574   2.062       .  S
Cu80         N90   2.071       .  S
Cu81         N83   2.093       .  S
Cu81         N89   2.096       .  S
N82          N83   1.321       .  A
N82          C86   1.339       .  A
N82        Cu571   2.045   1_554  S
N83          C84   1.350       .  A
C84          C85   1.390       .  A
C84          H87   1.081       .  S
C85         C334   1.476       .  S
C85          C86   1.376       .  A
C86          H88   1.082       .  S
N89         N582   1.324   1_554  A
N89          C93   1.348       .  A
N90         N581   1.321       .  A
N90          C91   1.344       .  A
C91          C92   1.388       .  A
C91          H94   1.078       .  S
C92         C350   1.494       .  S
C92         C585   1.391       .  A
C93         C584   1.388   1_554  A
C93          H95   1.082       .  S
O96        Cu104   2.004   1_565  S
O96         C106   1.276       .  A
O97        Cu104   2.004       .  S
O97         C107   1.276       .  A
O98        Cu104   2.020       .  S
O98         C108   1.280       .  A
O99        Cu104   2.021   1_565  S
O99         C109   1.280       .  A
O100       Cu105   1.998       .  S
O100        C109   1.276       .  A
O101       Cu105   1.990   1_545  S
O101        C108   1.274       .  A
O102       Cu105   2.005   1_545  S
O102        C107   1.278       .  A
O103       Cu105   2.007       .  S
O103        C106   1.279       .  A
Cu104      Cu105   2.364   1_545  S
C106        C305   1.493       .  S
C107        C337   1.477       .  S
C108        C318   1.493       .  S
C109        C289   1.490       .  S
O110       Cu118   1.992       .  S
O110        C120   1.274       .  A
O111       Cu118   1.991   1_655  S
O111        C121   1.276       .  A
O112       Cu118   2.006   1_655  S
O112        C122   1.277       .  A
O113       Cu118   2.007       .  S
O113        C123   1.277       .  A
O114       Cu119   2.001       .  S
O114        C123   1.278       .  A
O115       Cu119   2.002   1_655  S
O115        C122   1.277       .  A
O116       Cu119   2.010   1_655  S
O116        C121   1.278       .  A
O117       Cu119   2.014       .  S
O117        C120   1.280       .  A
Cu118      Cu119   2.362       .  S
C120        C257   1.492       .  S
C121        C401   1.490       .  S
C122        C385   1.483       .  S
C123        C270   1.492       .  S
N124        N125   1.321       .  A
N124        C128   1.347       .  A
N124       Cu132   2.083       .  S
N125        C126   1.341       .  A
N125       Cu623   2.054       .  S
C126        C127   1.381       .  A
C126        H129   1.081       .  S
C127        C462   1.480       .  S
C127        C128   1.389       .  A
C128        H130   1.082       .  S
Cu131       N134   2.057       .  S
Cu131       N617   2.057   1_554  S
Cu132       N142   2.083       .  S
Cu133       N135   2.068       .  S
Cu133       N141   2.069       .  S
N134        N135   1.320       .  A
N134        C138   1.341       .  A
N135        C136   1.345       .  A
C136        C137   1.384       .  A
C136        H139   1.081       .  S
C137        C481   1.474       .  S
C137        C138   1.380       .  A
C138        H140   1.082       .  S
N141        N634   1.322   1_554  A
N141        C145   1.342       .  A
N142        N633   1.322       .  A
N142        C143   1.346       .  A
C143        C636   1.388       .  A
C143        H146   1.081       .  S
C144        C241   1.488       .  S
C144        C145   1.386       .  A
C144        C635   1.389   1_554  A
C145        H147   1.079       .  S
C148        C238   1.483   1_554  S
C148        C149   1.405       .  A
C148        C153   1.403       .  A
C149        C150   1.405       .  A
C149        H154   1.083       .  S
C150        C209   1.487       .  S
C150        C151   1.405       .  A
C151        C152   1.403       .  A
C151        H155   1.083       .  S
C152        C222   1.483       .  S
C152        C153   1.402       .  A
C153        H156   1.084       .  S
N157        N158   1.322       .  A
N157        C161   1.346       .  A
N157       Cu165   2.079       .  S
N158        C159   1.342       .  A
N158       Cu164   2.058       .  S
C159        C160   1.379       .  A
C159        H162   1.082       .  S
C160        C273   1.476       .  S
C160        C161   1.386       .  A
C161        H163   1.081       .  S
Cu164       N659   2.058   1_554  S
Cu165       N175   2.080       .  S
Cu166       N168   2.066       .  S
Cu166       N174   2.067       .  S
N167        N168   1.320       .  A
N167        C171   1.341       .  A
N167       Cu656   2.053       .  S
N168        C169   1.345       .  A
C169        C170   1.384       .  A
C169        H172   1.082       .  S
C170        C254   1.472       .  S
C170        C171   1.379       .  A
C171        H173   1.082       .  S
N174        N667   1.323       .  A
N174        C178   1.341       .  A
N175        N666   1.323   1_554  A
N175        C176   1.347       .  A
C176        C177   1.387       .  A
C176        H179   1.081       .  S
C177        C225   1.485       .  S
C177        C670   1.385   1_554  A
C178        C669   1.382       .  A
C178        H180   1.080       .  S
N181        N182   1.320       .  A
N181        C185   1.345       .  A
N181       Cu189   2.071       .  S
N182        C183   1.342       .  A
N182       Cu188   2.058       .  S
C183        C184   1.382       .  A
C183        H186   1.082       .  S
C184        C302   1.481       .  S
C184        C185   1.387       .  A
C185        H187   1.080       .  S
Cu188       N683   2.057       .  S
Cu189       N199   2.071       .  S
Cu190       N192   2.089       .  S
Cu190       N198   2.090       .  S
N191        N192   1.321       .  A
N191        C195   1.343       .  A
N191       Cu680   2.063   1_554  S
N192        C193   1.346       .  A
C193        C194   1.391       .  A
C193        H196   1.082       .  S
C194        C286   1.487       .  S
C194        C195   1.384       .  A
C195        H197   1.081       .  S
N198        N691   1.322   1_554  A
N198        C202   1.348       .  A
N199        N690   1.322       .  A
N199        C200   1.343       .  A
C200        C201   1.385       .  A
C200        H203   1.082       .  S
C201        C206   1.484       .  S
C201        C694   1.387       .  A
C202        C693   1.391       .  A
C202        H204   1.078       .  S
C205        C206   1.405       .  A
C205        C210   1.402       .  A
C205        H212   1.083       .  S
C206        C699   1.416       .  A
C207        C208   1.408       .  A
C207        C698   1.419       .  A
C207        C214   1.507       .  S
C208        C209   1.403       .  A
C208        H213   1.084       .  S
C209        C702   1.413   1_554  A
C210        C701   1.413       .  A
C210        C211   1.509       .  S
C211        H215   1.111       .  S
C211        H217   1.110       .  S
C211        H708   1.108       .  S
C214        H218   1.106       .  S
C214        H220   1.111       .  S
C214        H711   1.110       .  S
H216        C703   1.107       .  S
H219        C706   1.110       .  S
C221        C226   1.401       .  A
C221        C714   1.402       .  A
C221        H228   1.085       .  S
C222        C223   1.414       .  A
C222        C713   1.402   1_554  A
C223        C224   1.405       .  A
C223        C230   1.508       .  S
C224        C225   1.405       .  A
C224        H229   1.084       .  S
C225        C718   1.417   1_554  A
C226        C717   1.417       .  A
C226        C227   1.508       .  S
C227        H231   1.111       .  S
C227        H233   1.107       .  S
C227        H724   1.110       .  S
C230        H234   1.110       .  S
C230        H236   1.111       .  S
C230        H727   1.108       .  S
H232        C719   1.110       .  S
H235        C722   1.108       .  S
C237        C238   1.402   1_554  A
C237        C242   1.404       .  A
C237        H244   1.085       .  S
C238        C731   1.412       .  A
C239        C240   1.403       .  A
C239        C730   1.412       .  A
C239        C246   1.508       .  S
C240        C733   1.406       .  A
C240        H245   1.084       .  S
C241        C242   1.419       .  A
C241        C732   1.407   1_554  A
C242        C243   1.508       .  S
C243        H247   1.111       .  S
C243        H248   1.106       .  S
C243        H249   1.110       .  S
C246        H250   1.108       .  S
C246        H251   1.110       .  S
C246        H252   1.111       .  S
C253        C254   1.397       .  A
C253        C258   1.402       .  A
C253        H260   1.084       .  S
C254        C255   1.409       .  A
C255        C256   1.403       .  A
C255        C262   1.507       .  S
C256        C257   1.409       .  A
C256        H261   1.083       .  S
C257        C258   1.425       .  A
C258        C259   1.509       .  S
C259        H263   1.111       .  S
C259        H264   1.110       .  S
C259        H265   1.110       .  S
C262        H266   1.111       .  S
C262        H267   1.109       .  S
C262        H268   1.111       .  S
C269        C270   1.409       .  A
C269        C274   1.402       .  A
C269        H276   1.084       .  S
C270        C271   1.422       .  A
C271        C272   1.405       .  A
C271        C278   1.508       .  S
C272        C273   1.400       .  A
C272        H277   1.085       .  S
C273        C274   1.411       .  A
C274        C275   1.508       .  S
C275        H279   1.111       .  S
C275        H280   1.108       .  S
C275        H281   1.111       .  S
C278        H282   1.110       .  S
C278        H283   1.110       .  S
C278        H284   1.111       .  S
C285        C286   1.402       .  A
C285        C290   1.403       .  A
C285        H292   1.083       .  S
C286        C287   1.416       .  A
C287        C288   1.407       .  A
C287        C294   1.508       .  S
C288        C289   1.406       .  A
C288        H293   1.084       .  S
C289        C290   1.420       .  A
C290        C291   1.509       .  S
C291        H295   1.111       .  S
C291        H296   1.109       .  S
C291        H297   1.110       .  S
C294        H298   1.107       .  S
C294        H299   1.110       .  S
C294        H300   1.111       .  S
C301        C302   1.401       .  A
C301        C306   1.403       .  A
C301        H308   1.084       .  S
C302        C303   1.413       .  A
C303        C304   1.403       .  A
C303        C310   1.508       .  S
C304        C305   1.408       .  A
C304        H309   1.083       .  S
C305        C306   1.422       .  A
C306        C307   1.509       .  S
C307        H311   1.111       .  S
C307        H312   1.110       .  S
C307        H313   1.110       .  S
C310        H314   1.110       .  S
C310        H315   1.107       .  S
C310        H316   1.111       .  S
C317        C318   1.409       .  A
C317        C322   1.405       .  A
C317        H324   1.083       .  S
C318        C319   1.425       .  A
C319        C320   1.401       .  A
C319        C326   1.510       .  S
C320        C321   1.398       .  A
C320        H325   1.085       .  S
C321        C322   1.410       .  A
C322        C323   1.507       .  S
C323        H327   1.111       .  S
C323        H328   1.111       .  S
C323        H329   1.108       .  S
C326        H330   1.110       .  S
C326        H331   1.110       .  S
C326        H332   1.111       .  S
C333        C334   1.404       .  A
C333        C338   1.403       .  A
C333        H340   1.084       .  S
C334        C335   1.411       .  A
C335        C336   1.403       .  A
C335        C342   1.506       .  S
C336        C337   1.404       .  A
C336        H341   1.084       .  S
C337        C338   1.414       .  A
C338        C339   1.508       .  S
C339        H343   1.111       .  S
C339        H344   1.111       .  S
C339        H345   1.109       .  S
C342        H346   1.111       .  S
C342        H347   1.109       .  S
C342        H348   1.111       .  S
C349        C354   1.404       .  A
C349        C842   1.403   1_554  A
C349        H356   1.084       .  S
C350        C351   1.421       .  A
C350        C841   1.407       .  A
C351        C352   1.406       .  A
C351        C358   1.507       .  S
C352        C353   1.402       .  A
C352        H357   1.084       .  S
C353        C557   1.486       .  S
C353        C846   1.413       .  A
C354        C845   1.415   1_554  A
C354        C355   1.508       .  S
C355        H359   1.111       .  S
C355        H361   1.110       .  S
C355        H852   1.108       .  S
C358        H362   1.107       .  S
C358        H364   1.111       .  S
C358        H855   1.110       .  S
H360        C847   1.108       .  S
H363        C850   1.110       .  S
C365        C366   1.405   1_556  A
C365        C370   1.402       .  A
C365        H372   1.084       .  S
C366        C551   1.484       .  S
C366        C859   1.418       .  A
C367        C368   1.404       .  A
C367        C858   1.416       .  A
C367        C374   1.507       .  S
C368        C861   1.403       .  A
C368        H373   1.085       .  S
C369        C370   1.412       .  A
C369        C860   1.402   1_556  A
C370        C371   1.508       .  S
C371        H375   1.111       .  S
C371        H377   1.108       .  S
C371        H868   1.110       .  S
C374        H378   1.110       .  S
C374        H380   1.111       .  S
C374        H871   1.107       .  S
H376        C863   1.110       .  S
H379        C866   1.107       .  S
C381        C382   1.401       .  A
C381        C386   1.404       .  A
C381        H388   1.084       .  S
C382        C383   1.414       .  A
C383        C384   1.401       .  A
C383        C390   1.509       .  S
C384        C385   1.404       .  A
C384        H389   1.084       .  S
C385        C386   1.419       .  A
C386        C387   1.508       .  S
C387        H391   1.111       .  S
C387        H392   1.111       .  S
C387        H393   1.109       .  S
C390        H394   1.110       .  S
C390        H395   1.107       .  S
C390        H396   1.111       .  S
C397        C398   1.400       .  A
C397        C402   1.402       .  A
C397        H404   1.085       .  S
C398        C399   1.408       .  A
C399        C400   1.402       .  A
C399        C406   1.507       .  S
C400        C401   1.411       .  A
C400        H405   1.084       .  S
C401        C402   1.421       .  A
C402        C403   1.508       .  S
C403        H407   1.111       .  S
C403        H408   1.110       .  S
C403        H409   1.110       .  S
C406        H410   1.109       .  S
C406        H411   1.111       .  S
C406        H412   1.111       .  S
C413        C414   1.402   1_554  A
C413        C418   1.402       .  A
C413        H420   1.084       .  S
C414        C907   1.413       .  A
C415        C416   1.403       .  A
C415        C906   1.414       .  A
C415        C422   1.508       .  S
C416        C909   1.404       .  A
C416        H421   1.084       .  S
C417        C418   1.417   1_556  A
C417        C908   1.406       .  A
C418        C419   1.508       .  S
C419        H423   1.110       .  S
C419        H425   1.107       .  S
C419        H916   1.110       .  S
C422        H426   1.107       .  S
C422        H428   1.111       .  S
C422        H919   1.111       .  S
H424        C911   1.110       .  S
H427        C914   1.111       .  S
C429        C430   1.398       .  A
C429        C434   1.400       .  A
C429        H436   1.085       .  S
C430        C431   1.410       .  A
C431        C432   1.403       .  A
C431        C438   1.507       .  S
C432        C433   1.408       .  A
C432        H437   1.084       .  S
C433        C434   1.423       .  A
C434        C435   1.509       .  S
C435        H439   1.111       .  S
C435        H440   1.110       .  S
C435        H441   1.110       .  S
C438        H442   1.109       .  S
C438        H443   1.110       .  S
C438        H444   1.111       .  S
C445        C446   1.405       .  A
C445        C450   1.399       .  A
C445        H452   1.084       .  S
C446        C447   1.420       .  A
C447        C448   1.405       .  A
C447        C454   1.508       .  S
C448        C449   1.401       .  A
C448        H453   1.084       .  S
C449        C450   1.413       .  A
C450        C451   1.509       .  S
C451        H455   1.111       .  S
C451        H456   1.110       .  S
C451        H457   1.107       .  S
C454        H458   1.110       .  S
C454        H459   1.110       .  S
C454        H460   1.111       .  S
C461        C462   1.401       .  A
C461        C466   1.403       .  A
C461        H468   1.084       .  S
C462        C463   1.414       .  A
C463        C464   1.403       .  A
C463        C470   1.508       .  S
C464        C465   1.405       .  A
C464        H469   1.083       .  S
C465        C466   1.421       .  A
C466        C467   1.509       .  S
C467        H471   1.111       .  S
C467        H472   1.111       .  S
C467        H473   1.109       .  S
C470        H474   1.110       .  S
C470        H475   1.107       .  S
C470        H476   1.111       .  S
C477        C478   1.409       .  A
C477        C482   1.402       .  A
C477        H484   1.083       .  S
C478        C479   1.422       .  A
C479        C480   1.403       .  A
C479        C486   1.509       .  S
C480        C481   1.399       .  A
C480        H485   1.084       .  S
C481        C482   1.410       .  A
C482        C483   1.508       .  S
C483        H487   1.111       .  S
C483        H488   1.108       .  S
C483        H489   1.110       .  S
C486        H490   1.110       .  S
C486        H491   1.110       .  S
C486        H492   1.111       .  S
O493       Cu501   2.004       .  S
O493        C503   1.277       .  A
O494       Cu501   2.003       .  S
O494        C504   1.279       .  A
O495       Cu501   2.005       .  S
O495        C505   1.276       .  A
O496       Cu501   2.005       .  S
O496        C506   1.276       .  A
O497       Cu502   2.000       .  S
O497        C506   1.278       .  A
O498       Cu502   1.998       .  S
O498        C505   1.278       .  A
O499       Cu502   2.006       .  S
O499        C504   1.276       .  A
O500       Cu502   2.000       .  S
O500        C503   1.276       .  A
Cu501      Cu502   2.363       .  S
C503        C925   1.482       .  S
C504        C957   1.493       .  S
C505        C970   1.491       .  S
C506        C938   1.491       .  S
N507        N508   1.320       .  A
N507        C511   1.348       .  A
N507       Cu515   2.078       .  S
N508        C509   1.338       .  A
N508       Cu514   2.041       .  S
C509        C510   1.376       .  A
C509        H512   1.082       .  S
C510        C890   1.470       .  S
C510        C511   1.387       .  A
C511        H513   1.082       .  S
Cu515       N525   2.080       .  S
Cu516       N518   2.076       .  S
Cu516       N524   2.078       .  S
N517        N518   1.319       .  A
N517        C521   1.339       .  A
N518        C519   1.346       .  A
C519        C520   1.387       .  A
C519        H522   1.082       .  S
C520        C874   1.471       .  S
C520        C521   1.378       .  A
C521        H523   1.082       .  S
N524        C528   1.345       .  A
N525        C526   1.346       .  A
C526        C527   1.384       .  A
C526        H529   1.081       .  S
C527        C906   1.480       .  S
C528        H530   1.081       .  S
N531        N532   1.321       .  A
N531        C535   1.348       .  A
N531       Cu539   2.081       .  S
N532        C533   1.339       .  A
N532       Cu538   2.052   1_556  S
C533        C534   1.378       .  A
C533        H536   1.081       .  S
C534        C941   1.474       .  S
C534        C535   1.387       .  A
C535        H537   1.082       .  S
Cu539       N549   2.082       .  S
Cu540       N542   2.080       .  S
Cu540       N548   2.083       .  S
N541        N542   1.319       .  A
N541        C545   1.337       .  A
N542        C543   1.349       .  A
C543        C544   1.389       .  A
C543        H546   1.081       .  S
C544        C922   1.475       .  S
C544        C545   1.377       .  A
C545        H547   1.082       .  S
N548        C552   1.345       .  A
N549        C550   1.344       .  A
C550        C551   1.387   1_556  A
C550        H553   1.081       .  S
C552        H554   1.080       .  S
C555        C861   1.483       .  S
C555        C556   1.405       .  A
C555        C560   1.403       .  A
C556        C557   1.405       .  A
C556        H561   1.083       .  S
C557        C558   1.403       .  A
C558        C559   1.404       .  A
C558        H562   1.084       .  S
C559        C909   1.482       .  S
C559        C560   1.401       .  A
C560        H563   1.083       .  S
N564        N565   1.319       .  A
N564        C568   1.347       .  A
N564       Cu572   2.067       .  S
N565        C566   1.338       .  A
N565       Cu571   2.044       .  S
C566        C567   1.378       .  A
C566        H569   1.082       .  S
C567        C813   1.471       .  S
C567        C568   1.386       .  A
C568        H570   1.081       .  S
Cu572       N582   2.069       .  S
Cu573       N575   2.083       .  S
Cu573       N581   2.083       .  S
N574        N575   1.321       .  A
N574        C578   1.343       .  A
N575        C576   1.346       .  A
C576        C577   1.387       .  A
C576        H579   1.081       .  S
C577        C826   1.480       .  S
C577        C578   1.383       .  A
C578        H580   1.081       .  S
N581        C585   1.345       .  A
N582        C583   1.343       .  A
C583        C584   1.382       .  A
C583        H586   1.079       .  S
C584        C842   1.484       .  S
C585        H587   1.081       .  S
O588       Cu596   2.005   1_565  S
O588        C598   1.276       .  A
O589       Cu596   2.000       .  S
O589        C599   1.276       .  A
O590       Cu596   2.005       .  S
O590        C600   1.278       .  A
O591       Cu596   2.008   1_565  S
O591        C601   1.279       .  A
O592       Cu597   2.001       .  S
O592        C601   1.276       .  A
O593       Cu597   1.994   1_545  S
O593        C600   1.275       .  A
O594       Cu597   2.017   1_545  S
O594        C599   1.280       .  A
O595       Cu597   2.016       .  S
O595        C598   1.280       .  A
Cu596      Cu597   2.364   1_545  S
C598        C797   1.496       .  S
C599        C829   1.492       .  S
C600        C810   1.476       .  S
C601        C781   1.492       .  S
O602       Cu610   1.994       .  S
O602        C612   1.275       .  A
O603       Cu610   1.995   1_655  S
O603        C613   1.277       .  A
O604       Cu610   1.997   1_655  S
O604        C614   1.276       .  A
O605       Cu610   1.997       .  S
O605        C615   1.275       .  A
O606       Cu611   2.001       .  S
O606        C615   1.278       .  A
O607       Cu611   2.004   1_655  S
O607        C614   1.278       .  A
O608       Cu611   2.007   1_655  S
O608        C613   1.277       .  A
O609       Cu611   2.014       .  S
O609        C612   1.279       .  A
Cu610      Cu611   2.362       .  S
C612        C749   1.493       .  S
C613        C893   1.490       .  S
C614        C877   1.487       .  S
C615        C762   1.485       .  S
N616        N617   1.321       .  A
N616        C620   1.347       .  A
N616       Cu624   2.079       .  S
N617        C618   1.340       .  A
C618        C619   1.379       .  A
C618        H621   1.082       .  S
C619        C954   1.475       .  S
C619        C620   1.386       .  A
C620        H622   1.082       .  S
Cu623       N626   2.054       .  S
Cu624       N634   2.080       .  S
Cu625       N627   2.068       .  S
Cu625       N633   2.069       .  S
N626        N627   1.320       .  A
N626        C630   1.341       .  A
N627        C628   1.345       .  A
C628        C629   1.386       .  A
C628        H631   1.081       .  S
C629        C973   1.476       .  S
C629        C630   1.381       .  A
C630        H632   1.082       .  S
N633        C637   1.342       .  A
N634        C635   1.345       .  A
C635        H638   1.081       .  S
C636        C733   1.485       .  S
C636        C637   1.384       .  A
C637        H639   1.080       .  S
C640        C730   1.480       .  S
C640        C641   1.404       .  A
C640        C645   1.404       .  A
C641        C642   1.402       .  A
C641        H646   1.083       .  S
C642        C701   1.480       .  S
C642        C643   1.400       .  A
C643        C644   1.401       .  A
C643        H647   1.084       .  S
C644        C714   1.480       .  S
C644        C645   1.402       .  A
C645        H648   1.083       .  S
N649        N650   1.321       .  A
N649        C653   1.346       .  A
N649       Cu657   2.077       .  S
N650        C651   1.340       .  A
N650       Cu656   2.053       .  S
C651        C652   1.379       .  A
C651        H654   1.082       .  S
C652        C765   1.476       .  S
C652        C653   1.387       .  A
C653        H655   1.081       .  S
Cu657       N667   2.079       .  S
Cu658       N660   2.076       .  S
Cu658       N666   2.077       .  S
N659        N660   1.321       .  A
N659        C663   1.341       .  A
N660        C661   1.347       .  A
C661        C662   1.386       .  A
C661        H664   1.081       .  S
C662        C746   1.477       .  S
C662        C663   1.380       .  A
C663        H665   1.082       .  S
N666        C670   1.344       .  A
N667        C668   1.346       .  A
C668        C669   1.387       .  A
C668        H671   1.081       .  S
C669        C717   1.482       .  S
C670        H672   1.080       .  S
N673        N674   1.320       .  A
N673        C677   1.346       .  A
N673       Cu681   2.078       .  S
N674        C675   1.343       .  A
N674       Cu680   2.063       .  S
C675        C676   1.384       .  A
C675        H678   1.082       .  S
C676        C794   1.486       .  S
C676        C677   1.388       .  A
C677        H679   1.080       .  S
Cu681       N691   2.078       .  S
Cu682       N684   2.079       .  S
Cu682       N690   2.080       .  S
N683        N684   1.321       .  A
N683        C687   1.341       .  A
N684        C685   1.346       .  A
C685        C686   1.386       .  A
C685        H688   1.082       .  S
C686        C778   1.475       .  S
C686        C687   1.379       .  A
C687        H689   1.082       .  S
N690        C694   1.345       .  A
N691        C692   1.344       .  A
C692        C693   1.388   1_556  A
C692        H695   1.082       .  S
C693        C698   1.494       .  S
C694        H696   1.080       .  S
C697        C698   1.407   1_556  A
C697        C702   1.404       .  A
C697        H704   1.083       .  S
C699        C700   1.405       .  A
C699        C706   1.507       .  S
C700        C701   1.402       .  A
C700        H705   1.084       .  S
C702        C703   1.509       .  S
C703        H707   1.111       .  S
C703        H709   1.111       .  S
C706        H710   1.106       .  S
C706        H712   1.111       .  S
C713        C718   1.404       .  A
C713        H720   1.084       .  S
C714        C715   1.413       .  A
C715        C716   1.404       .  A
C715        C722   1.508       .  S
C716        C717   1.405       .  A
C716        H721   1.084       .  S
C718        C719   1.508       .  S
C719        H723   1.111       .  S
C719        H725   1.106       .  S
C722        H726   1.110       .  S
C722        H728   1.111       .  S
C729        C730   1.402       .  A
C729        C734   1.403       .  A
C729        H736   1.085       .  S
C731        C732   1.404       .  A
C731        C738   1.508       .  S
C732        H737   1.083       .  S
C733        C734   1.418       .  A
C734        C735   1.508       .  S
C735        H739   1.111       .  S
C735        H740   1.106       .  S
C735        H741   1.110       .  S
C738        H742   1.107       .  S
C738        H743   1.110       .  S
C738        H744   1.111       .  S
C745        C746   1.399       .  A
C745        C750   1.402       .  A
C745        H752   1.084       .  S
C746        C747   1.411       .  A
C747        C748   1.405       .  A
C747        C754   1.507       .  S
C748        C749   1.409       .  A
C748        H753   1.083       .  S
C749        C750   1.424       .  A
C750        C751   1.509       .  S
C751        H755   1.111       .  S
C751        H756   1.110       .  S
C751        H757   1.111       .  S
C754        H758   1.110       .  S
C754        H759   1.108       .  S
C754        H760   1.111       .  S
C761        C762   1.406       .  A
C761        C766   1.401       .  A
C761        H768   1.084       .  S
C762        C763   1.420       .  A
C763        C764   1.403       .  A
C763        C770   1.509       .  S
C764        C765   1.402       .  A
C764        H769   1.085       .  S
C765        C766   1.413       .  A
C766        C767   1.508       .  S
C767        H771   1.111       .  S
C767        H772   1.107       .  S
C767        H773   1.111       .  S
C770        H774   1.110       .  S
C770        H775   1.111       .  S
C770        H776   1.111       .  S
C777        C778   1.400       .  A
C777        C782   1.404       .  A
C777        H784   1.084       .  S
C778        C779   1.409       .  A
C779        C780   1.402       .  A
C779        C786   1.508       .  S
C780        C781   1.409       .  A
C780        H785   1.083       .  S
C781        C782   1.423       .  A
C782        C783   1.509       .  S
C783        H787   1.111       .  S
C783        H788   1.111       .  S
C783        H789   1.110       .  S
C786        H790   1.108       .  S
C786        H791   1.110       .  S
C786        H792   1.111       .  S
C793        C794   1.402       .  A
C793        C798   1.405       .  A
C793        H800   1.084       .  S
C794        C795   1.415       .  A
C795        C796   1.405       .  A
C795        C802   1.507       .  S
C796        C797   1.408       .  A
C796        H801   1.083       .  S
C797        C798   1.422       .  A
C798        C799   1.509       .  S
C799        H803   1.111       .  S
C799        H804   1.111       .  S
C799        H805   1.110       .  S
C802        H806   1.110       .  S
C802        H807   1.107       .  S
C802        H808   1.111       .  S
C809        C810   1.405       .  A
C809        C814   1.403       .  A
C809        H816   1.084       .  S
C810        C811   1.416       .  A
C811        C812   1.399       .  A
C811        C818   1.509       .  S
C812        C813   1.401       .  A
C812        H817   1.085       .  S
C813        C814   1.411       .  A
C814        C815   1.507       .  S
C815        H819   1.111       .  S
C815        H820   1.110       .  S
C815        H821   1.109       .  S
C818        H822   1.111       .  S
C818        H823   1.109       .  S
C818        H824   1.111       .  S
C825        C826   1.400       .  A
C825        C830   1.404       .  A
C825        H832   1.084       .  S
C826        C827   1.413       .  A
C827        C828   1.405       .  A
C827        C834   1.508       .  S
C828        C829   1.408       .  A
C828        H833   1.084       .  S
C829        C830   1.422       .  A
C830        C831   1.509       .  S
C831        H835   1.111       .  S
C831        H836   1.109       .  S
C831        H837   1.111       .  S
C834        H838   1.107       .  S
C834        H839   1.111       .  S
C834        H840   1.111       .  S
C841        C846   1.403       .  A
C841        H848   1.082       .  S
C842        C843   1.418       .  A
C843        C844   1.404       .  A
C843        C850   1.508       .  S
C844        C845   1.402       .  A
C844        H849   1.084       .  S
C846        C847   1.509       .  S
C847        H851   1.111       .  S
C847        H853   1.110       .  S
C850        H854   1.107       .  S
C850        H856   1.111       .  S
C857        C858   1.405       .  A
C857        C862   1.404       .  A
C857        H864   1.084       .  S
C859        C860   1.404       .  A
C859        C866   1.508       .  S
C860        H865   1.085       .  S
C861        C862   1.414       .  A
C862        C863   1.509       .  S
C863        H867   1.111       .  S
C863        H869   1.107       .  S
C866        H870   1.110       .  S
C866        H872   1.111       .  S
C873        C874   1.399       .  A
C873        C878   1.402       .  A
C873        H880   1.084       .  S
C874        C875   1.410       .  A
C875        C876   1.402       .  A
C875        C882   1.508       .  S
C876        C877   1.408       .  A
C876        H881   1.084       .  S
C877        C878   1.422       .  A
C878        C879   1.509       .  S
C879        H883   1.111       .  S
C879        H884   1.111       .  S
C879        H885   1.110       .  S
C882        H886   1.111       .  S
C882        H887   1.108       .  S
C882        H888   1.111       .  S
C889        C890   1.399       .  A
C889        C894   1.402       .  A
C889        H896   1.085       .  S
C890        C891   1.407       .  A
C891        C892   1.402       .  A
C891        C898   1.507       .  S
C892        C893   1.411       .  A
C892        H897   1.084       .  S
C893        C894   1.422       .  A
C894        C895   1.509       .  S
C895        H899   1.111       .  S
C895        H900   1.110       .  S
C895        H901   1.110       .  S
C898        H902   1.109       .  S
C898        H903   1.111       .  S
C898        H904   1.111       .  S
C905        C906   1.404       .  A
C905        C910   1.403       .  A
C905        H912   1.084       .  S
C907        C908   1.405       .  A
C907        C914   1.507       .  S
C908        H913   1.084       .  S
C909        C910   1.415       .  A
C910        C911   1.508       .  S
C911        H915   1.111       .  S
C911        H917   1.108       .  S
C914        H918   1.108       .  S
C914        H920   1.111       .  S
C921        C922   1.401       .  A
C921        C926   1.400       .  A
C921        H928   1.085       .  S
C922        C923   1.411       .  A
C923        C924   1.405       .  A
C923        C930   1.506       .  S
C924        C925   1.407       .  A
C924        H929   1.084       .  S
C925        C926   1.417       .  A
C926        C927   1.509       .  S
C927        H931   1.111       .  S
C927        H932   1.110       .  S
C927        H933   1.111       .  S
C930        H934   1.109       .  S
C930        H935   1.110       .  S
C930        H936   1.111       .  S
C937        C938   1.408       .  A
C937        C942   1.401       .  A
C937        H944   1.083       .  S
C938        C939   1.423       .  A
C939        C940   1.404       .  A
C939        C946   1.508       .  S
C940        C941   1.399       .  A
C940        H945   1.084       .  S
C941        C942   1.410       .  A
C942        C943   1.509       .  S
C943        H947   1.111       .  S
C943        H948   1.110       .  S
C943        H949   1.108       .  S
C946        H950   1.110       .  S
C946        H951   1.110       .  S
C946        H952   1.111       .  S
C953        C954   1.400       .  A
C953        C958   1.406       .  A
C953        H960   1.084       .  S
C954        C955   1.409       .  A
C955        C956   1.400       .  A
C955        C962   1.508       .  S
C956        C957   1.409       .  A
C956        H961   1.083       .  S
C957        C958   1.424       .  A
C958        C959   1.508       .  S
C959        H963   1.111       .  S
C959        H964   1.110       .  S
C959        H965   1.110       .  S
C962        H966   1.110       .  S
C962        H967   1.108       .  S
C962        H968   1.111       .  S
C969        C970   1.409       .  A
C969        C974   1.401       .  A
C969        H976   1.083       .  S
C970        C971   1.421       .  A
C971        C972   1.403       .  A
C971        C978   1.508       .  S
C972        C973   1.401       .  A
C972        H977   1.084       .  S
C973        C974   1.411       .  A
C974        C975   1.508       .  S
C975        H979   1.111       .  S
C975        H980   1.108       .  S
C975        H981   1.110       .  S
C978        H982   1.110       .  S
C978        H983   1.110       .  S
C978        H984   1.111       .  S
