geometry optimzed in LAMMPS
_audit_creation_date              2020-11-30 
_audit_creation_method            'lammps2cif' 
_symmetry_space_group_name_H-M    'P1' 
_symmetry_Int_Tables_number       1 
_symmetry_cell_setting            triclinic 
loop_ 
_symmetry_equiv_pos_as_xyz 
  x,y,z 
_cell_length_a                    48.791667965229706 
_cell_length_b                    48.746704131080854 
_cell_length_c                    86.19181559233743 
_cell_angle_alpha                 89.78548102852389 
_cell_angle_beta                  90.37541396077158 
_cell_angle_gamma                 121.37888327553317 
loop_ 
_atom_site_label 
_atom_site_type_symbol 
_atom_site_fract_x 
_atom_site_fract_y 
_atom_site_fract_z 
_atom_site_charge 
Fe1        Fe  0.13794280  0.28478924  0.51258848     1.65780
Fe2        Fe  0.14593236  0.35835728  0.51114358     1.73250
Fe3        Fe  0.21219357  0.35218544  0.51100412     1.54420
O4          O  0.21260487  0.31924736  0.52621666    -0.78570
O5          O  0.17108599  0.38254548  0.49180357    -0.76870
O6          O  0.16182736  0.28183777  0.53152094    -0.81070
O7          O  0.16646049  0.27721359  0.49740708    -0.75930
O8          O  0.21873688  0.38104549  0.52961041    -0.77700
O9          O  0.10872686  0.32731125  0.49625184    -0.80450
C10         C  0.19161458  0.29555286  0.48966949     1.00320
C11         C  0.19170336  0.29488879  0.53373870     1.07760
O12         O  0.16533039  0.33179682  0.51166346    -1.09430
O13         O  0.11853094  0.33655448  0.53041076    -0.71860
O14         O  0.10520540  0.28555821  0.52768457    -0.75350
O15         O  0.20952203  0.32530371  0.49228525    -0.76040
C16         C  0.10194163  0.30715212  0.53405412     0.99220
O17         O  0.11189865  0.28350121  0.49368183    -0.74000
O18         O  0.18094944  0.39322291  0.52571188    -0.79190
C19         C  0.20026900  0.39457088  0.48833801     1.01840
C20         C  0.20623446  0.39762415  0.53243031     1.07760
O21         O  0.21889116  0.38790914  0.49548579    -0.74830
C22         C  0.10070192  0.30076681  0.48975355     1.06060
C23         C  0.35451979  0.40950683  0.38771730     0.06240
C24         C  0.33059329  0.41065872  0.37930045    -0.09910
C25         C  0.29841179  0.38731629  0.38153024     0.03740
C26         C  0.28988355  0.36276082  0.39239466    -0.08440
C27         C  0.31358555  0.36166750  0.40145144     0.06230
C28         C  0.34612777  0.38517769  0.39881846    -0.07860
H29         H  0.33712871  0.42891106  0.37044963     0.11820
H30         H  0.26483412  0.34414082  0.39321097     0.09350
H31         H  0.36485306  0.38430097  0.40521626     0.09200
C32         C  0.27007896  0.25620637  0.44873631     0.06240
C33         C  0.24706106  0.25504562  0.45876325    -0.09910
C34         C  0.23391375  0.27401040  0.45594579     0.03740
C35         C  0.24329279  0.29390741  0.44293073    -0.08440
C36         C  0.26676871  0.29600324  0.43283095     0.06230
C37         C  0.28038372  0.27700057  0.43578723    -0.07860
H38         H  0.24009354  0.24007310  0.46906821     0.11820
H39         H  0.23314136  0.30884745  0.44099357     0.09350
H40         H  0.29848821  0.27818523  0.42813518     0.09200
C41         C  0.06138743  0.15532808  0.38925734     0.06240
C42         C  0.04991330  0.16548470  0.40161266    -0.09910
C43         C  0.06111600  0.19851788  0.40340896     0.03740
C44         C  0.08327492  0.22061384  0.39272499    -0.08440
C45         C  0.09389545  0.21031864  0.38032228     0.06230
C46         C  0.08316365  0.17783730  0.37865605    -0.07860
H47         H  0.03293546  0.14803785  0.40976625     0.11820
H48         H  0.09175855  0.24598302  0.39385197     0.09350
H49         H  0.09118083  0.16994758  0.36885655     0.09200
C50         C  0.47785433  0.22413022  0.44803406     0.06240
C51         C  0.48460617  0.20807163  0.43651828    -0.09910
C52         C  0.01566493  0.21405479  0.43569915     0.03740
C53         C  0.04007175  0.23704490  0.44550553    -0.08440
C54         C  0.03318424  0.25320196  0.45673497     0.06230
C55         C  0.00188608  0.24636465  0.45848604    -0.07860
H56         H  0.46527845  0.18975304  0.42947998     0.11820
H57         H  0.06432775  0.24180768  0.44482006     0.09350
H58         H  0.99652128  0.25823422  0.46755400     0.09200
C59         C  0.23871810  0.02102894  0.45008132     0.06240
C60         C  0.23977093  0.99704692  0.45848525    -0.09910
C61         C  0.22430695  0.46173064  0.45510286     0.03740
C62         C  0.20600129  0.45328936  0.44148132    -0.08440
C63         C  0.20784603  0.47721131  0.43170313     0.06230
C64         C  0.21393565  0.01285545  0.43930217    -0.07860
H65         H  0.25840076  0.00350371  0.46714793     0.11820
H66         H  0.18969479  0.42815942  0.43868073     0.09350
H67         H  0.21315000  0.03164971  0.43292942     0.09200
C68         C  0.08920705  0.44163536  0.39072540     0.06240
C69         C  0.11057579  0.45432007  0.40329195    -0.09910
C70         C  0.13430286  0.44652094  0.40534287     0.03740
C71         C  0.13570666  0.42509869  0.39492979    -0.08440
C72         C  0.11407576  0.41218563  0.38248676     0.06230
C73         C  0.09090880  0.42050991  0.38038484    -0.07860
H74         H  0.10953833  0.47113783  0.41110270     0.11820
H75         H  0.15359048  0.41847600  0.39642373     0.09350
H76         H  0.07497206  0.41147504  0.37039695     0.09200
Fe77       Fe  0.19196856  0.38899822  0.32696603     1.65780
Fe78       Fe  0.19523519  0.32110020  0.32488316     1.73250
Fe79       Fe  0.12306507  0.31582107  0.32525050     1.54410
O80         O  0.11704387  0.34492494  0.34079952    -0.78570
O81         O  0.17215686  0.29574880  0.30523817    -0.76870
O82         O  0.16578067  0.38695265  0.34582081    -0.81070
O83         O  0.15948622  0.39087709  0.31171634    -0.75930
O84         O  0.12242438  0.28949554  0.34389458    -0.77700
O85         O  0.23087733  0.35648817  0.31088959    -0.80450
C86         C  0.13435416  0.37048568  0.30431423     1.00320
C87         C  0.13610081  0.36986941  0.34856433     1.07760
O88         O  0.17014955  0.34205465  0.32559438    -1.09430
O89         O  0.22015350  0.34414204  0.34450155    -0.71860
O90         O  0.22682182  0.39295040  0.34258868    -0.75350
O91         O  0.12009120  0.34047754  0.30663061    -0.76040
C92         C  0.23268315  0.37292394  0.34893769     0.99220
O93         O  0.22089438  0.39604249  0.30834870    -0.74000
O94         O  0.16363836  0.28305751  0.33911290    -0.79190
C95         C  0.14227862  0.27864143  0.30269271     1.01840
C96         C  0.13848717  0.27633715  0.34655543     1.07760
O97         O  0.12171767  0.28215029  0.30995029    -0.74830
C98         C  0.23663532  0.38290999  0.30500200     1.06060
C99         C  0.32244476  0.43948106  0.28477800     0.06240
C100        C  0.33085090  0.46373202  0.27366818    -0.09910
C101        C  0.36337043  0.48670738  0.27080307     0.03740
C102        C  0.38716983  0.48541642  0.27963114    -0.08440
C103        C  0.37868400  0.46108468  0.29062234     0.06230
C104        C  0.34640301  0.43812003  0.29310387    -0.07860
H105        H  0.31216083  0.46484099  0.26735869     0.11820
H106        H  0.41226581  0.50381862  0.27845300     0.09350
H107        H  0.33986122  0.41994228  0.30199057     0.09200
C108        C  0.40689649  0.04834366  0.23845923     0.06240
C109        C  0.42900353  0.04984739  0.22761969    -0.09910
C110        C  0.43792326  0.07029657  0.21480913     0.03740
C111        C  0.42561177  0.09025876  0.21291850    -0.08440
C112        C  0.40390423  0.08956156  0.22367610     0.06230
C113        C  0.39421276  0.06842129  0.23644117    -0.07860
H114        H  0.43844675  0.03412797  0.22884208     0.11820
H115        H  0.43210838  0.10560587  0.20276542     0.09350
H116        H  0.37715322  0.06774036  0.24464240     0.09200
Fe117      Fe  0.46205335  0.49238915  0.15999001     1.65780
Fe118      Fe  0.03396418  0.06279205  0.15715515     1.73250
Fe119      Fe  0.02910491  0.48910498  0.15980367     1.54420
O120        O  0.50612345  0.46486230  0.17886408    -0.78570
O121        O  0.06712147  0.06262008  0.14217047    -0.76870
O122        O  0.45741108  0.45769126  0.17583880    -0.81070
O123        O  0.45539578  0.46265725  0.14169788    -0.75930
O124        O  0.06349767  0.02094300  0.17424634    -0.77700
O125        O  0.50933069  0.06446000  0.13826201    -0.80450
C126        C  0.46851864  0.44658133  0.13899405     1.00320
C127        C  0.47699692  0.45184174  0.18265595     1.07760
O128        O  0.00716602  0.01560235  0.15808029    -1.09430
O129        O  0.00497170  0.06963793  0.17228845    -0.71860
O130        O  0.46096302  0.01984516  0.17690380    -0.75350
O131        O  0.99461818  0.45260391  0.14564197    -0.76040
C132        C  0.47870439  0.04948530  0.17986231     0.99220
O133        O  0.45881055  0.02542413  0.14287276    -0.74000
O134        O  0.06020975  0.06476731  0.17618351    -0.79190
C135        C  0.07136316  0.04135945  0.13616074     1.01840
C136        C  0.07119926  0.04755901  0.18055218     1.07760
O137        O  0.05545553  0.01202199  0.14000511    -0.74830
C138        C  0.47946469  0.05046890  0.13566581     1.06060
C139        C  0.11599810  0.15399770  0.26743600     0.06240
C140        C  0.12299576  0.18562047  0.26947814    -0.09910
C141        C  0.11206434  0.19366687  0.28271063     0.03740
C142        C  0.09323129  0.16996217  0.29359906    -0.08440
C143        C  0.08569244  0.13837584  0.29151138     0.06230
C144        C  0.09738369  0.13044014  0.27855306    -0.07860
H145        H  0.13766758  0.20400840  0.26106804     0.11820
H146        H  0.08504376  0.17626928  0.30390277     0.09350
H147        H  0.09167088  0.10594291  0.27700603     0.09200
C148        C  0.15160949  0.11873990  0.24007534     0.06240
C149        C  0.18330022  0.12611559  0.23790998    -0.09910
C150        C  0.19138305  0.11592442  0.22440847     0.03740
C151        C  0.16768607  0.09746513  0.21339359    -0.08440
C152        C  0.13609633  0.08962426  0.21558926     0.06230
C153        C  0.12808267  0.10050402  0.22881941    -0.07860
H154        H  0.20169742  0.14060488  0.24639788     0.11820
H155        H  0.17403193  0.08993661  0.20287085     0.09350
H156        H  0.10358313  0.09464653  0.23041102     0.09200
C157        C  0.04588421  0.40994755  0.26803123     0.06240
C158        C  0.06557458  0.39694834  0.27042344    -0.09910
C159        C  0.08530276  0.40565488  0.28372990     0.03740
C160        C  0.08488704  0.42659120  0.29465007    -0.08440
C161        C  0.06524719  0.43914841  0.29236403     0.06230
C162        C  0.04630226  0.43132241  0.27901935    -0.07860
H163        H  0.06566333  0.38042146  0.26209209     0.11820
H164        H  0.09908893  0.43228629  0.30520276     0.09350
H165        H  0.03078244  0.44092583  0.27749411     0.09200
C166        C  0.48273573  0.36740953  0.23487608     0.06240
C167        C  0.48273380  0.39156967  0.22580519    -0.09910
C168        C  0.45902821  0.38364020  0.21450006     0.03740
C169        C  0.43534843  0.35151166  0.21197898    -0.08440
C170        C  0.43541129  0.32718137  0.22061552     0.06230
C171        C  0.45908459  0.33507566  0.23200908    -0.07860
H172        H  0.50167029  0.41648960  0.22705472     0.11820
H173        H  0.41761955  0.34535138  0.20287198     0.09350
H174        H  0.45923114  0.31610472  0.23854075     0.09200
Fe175      Fe  0.48147814  0.02868779  0.34677765     1.65780
Fe176      Fe  0.05243374  0.03185128  0.34827483     1.73250
Fe177      Fe  0.48553741  0.46086905  0.34547938     1.54420
O178        O  0.45549712  0.45309984  0.36367901    -0.78570
O179        O  0.05817172  0.00163725  0.33313496    -0.76870
O180        O  0.44489509  0.99428381  0.36092765    -0.81070
O181        O  0.45735156  0.00513124  0.32712714    -0.75930
O182        O  0.01445282  0.45510066  0.36276326    -0.77700
O183        O  0.05585277  0.05869219  0.32930249    -0.80450
C184        C  0.44534484  0.47606198  0.32274511     1.00320
C185        C  0.43945492  0.46608403  0.36676612     1.07760
O186        O  0.00543904  0.00664921  0.34692672    -1.09430
O187        O  0.05324763  0.06601015  0.36330021    -0.71860
O188        O  0.00279271  0.05419996  0.36601659    -0.75350
O189        O  0.45097789  0.45628185  0.32949404    -0.76040
C190        C  0.03222562  0.07031908  0.36960224     0.99220
O191        O  0.01434703  0.06554820  0.33204637    -0.74000
O192        O  0.05171609  0.50527390  0.36932065    -0.79190
C193        C  0.04047417  0.47714753  0.32701281     1.01840
C194        C  0.03830738  0.47516065  0.37087774     1.07760
O195        O  0.01043235  0.45990075  0.32888992    -0.74830
C196        C  0.04030763  0.07185605  0.32550213     1.06060
Fe197      Fe  0.28962275  0.14876986  0.99012576     1.65780
Fe198      Fe  0.36202117  0.15448588  0.99195461     1.73250
Fe199      Fe  0.35820121  0.22210552  0.99227305     1.54420
O200        O  0.32542743  0.22350631  0.97696332    -0.78570
O201        O  0.38606672  0.17875670  0.01152170    -0.76870
O202        O  0.28774762  0.17300865  0.97104592    -0.81070
O203        O  0.28276882  0.17828857  0.00507230    -0.75930
O204        O  0.38733901  0.22835614  0.97378909    -0.77700
O205        O  0.32982044  0.11742383  0.00662554    -0.80450
C206        C  0.30149872  0.20287282  0.01316852     1.00320
C207        C  0.30081973  0.20304505  0.96927002     1.07760
O208        O  0.33666422  0.17512996  0.99130898    -1.09430
O209        O  0.34023873  0.12760292  0.97246857    -0.71860
O210        O  0.28954689  0.11490420  0.97531847    -0.75350
O211        O  0.33142979  0.21980826  0.01093604    -0.76040
C212        C  0.31073212  0.11090439  0.96902769     0.99220
O213        O  0.28735910  0.12278400  0.00923472    -0.74000
O214        O  0.39800289  0.18948796  0.97778390    -0.79190
C215        C  0.39926414  0.20804906  0.01511184     1.01840
C216        C  0.40361218  0.21537591  0.97122373     1.07760
O217        O  0.39358717  0.22751547  0.00802145    -0.74830
C218        C  0.30375461  0.11064905  0.01322581     1.06060
C219        C  0.26288349  0.27971310  0.05662440     0.06240
C220        C  0.26180551  0.25784715  0.04578267    -0.09910
C221        C  0.28090160  0.24455054  0.04781386     0.03740
C222        C  0.30092161  0.25277892  0.06081273    -0.08440
C223        C  0.30278990  0.27505314  0.07170724     0.06230
C224        C  0.28350039  0.28857064  0.06957664    -0.07860
H225        H  0.24677745  0.25189583  0.03551178     0.11820
H226        H  0.31601214  0.24264458  0.06215644     0.09350
H227        H  0.28434603  0.30564917  0.07785575     0.09200
C228        C  0.41140950  0.35955511  0.11947255     0.06240
C229        C  0.38803918  0.35161774  0.10790778    -0.09910
C230        C  0.36465952  0.31925325  0.10487700     0.03740
C231        C  0.36463865  0.29507425  0.11395975    -0.08440
C232        C  0.38802485  0.30305132  0.12546690     0.06230
C233        C  0.41141678  0.33522732  0.12813812    -0.07860
H234        H  0.38793388  0.37058665  0.10135422     0.11820
H235        H  0.34593052  0.27011036  0.11255223     0.09350
H236        H  0.42891883  0.34141388  0.13736217     0.09200
C237        C  0.23030544  0.03138777  0.07238431     0.06240
C238        C  0.24881517  0.05454868  0.06108513    -0.09910
C239        C  0.25986606  0.04598603  0.04808280     0.03740
C240        C  0.25175510  0.01418420  0.04614516    -0.08440
C241        C  0.23204676  0.49157196  0.05787720     0.06230
C242        C  0.22186733  0.50017271  0.07121919    -0.07860
H243        H  0.25490652  0.07919226  0.06251562     0.11820
H244        H  0.25942750  0.00739565  0.03581824     0.09350
H245        H  0.20747973  0.48207088  0.07979614     0.09200
C246        C  0.15498277  0.06978770  0.11540494     0.06240
C247        C  0.16308844  0.05952063  0.10193023    -0.09910
C248        C  0.19475169  0.06670231  0.09983193     0.03740
C249        C  0.21820163  0.08480422  0.11115235    -0.08440
C250        C  0.21012765  0.09572868  0.12435174     0.06230
C251        C  0.17860213  0.08809304  0.12646141    -0.07860
H252        H  0.14473298  0.04515894  0.09340266     0.11820
H253        H  0.24268646  0.09057274  0.10962614     0.09350
H254        H  0.17224254  0.09571330  0.13695110     0.09200
C255        C  0.02136904  0.24668277  0.05444015     0.06240
C256        C  0.99796522  0.24793352  0.04552064    -0.09910
C257        C  0.46589758  0.22442919  0.04766431     0.03740
C258        C  0.45691510  0.20020437  0.05880034    -0.08440
C259        C  0.48037311  0.19914071  0.06802230     0.06230
C260        C  0.01232270  0.22234696  0.06548109    -0.07860
H261        H  0.00509401  0.26621419  0.03663869     0.11820
H262        H  0.43180153  0.18172614  0.05978050     0.09350
H263        H  0.03065843  0.22133947  0.07218919     0.09200
C264        C  0.44196815  0.09768329  0.11567970     0.06240
C265        C  0.44964714  0.11732177  0.10247622    -0.09910
C266        C  0.43560506  0.13611684  0.10030428     0.03740
C267        C  0.41392206  0.13467039  0.11136309    -0.08440
C268        C  0.40693287  0.11564589  0.12461423     0.06230
C269        C  0.42074294  0.09704464  0.12671692    -0.07860
H270        H  0.46636598  0.11793882  0.09407618     0.11820
H271        H  0.40352098  0.14952509  0.10999927     0.09350
H272        H  0.41579270  0.08286475  0.13720475     0.09200
Fe273      Fe  0.38607083  0.19495770  0.18021288     1.65780
Fe274      Fe  0.31770865  0.19730542  0.18068614     1.73250
Fe275      Fe  0.31358940  0.12558117  0.18258894     1.54420
O276        O  0.34321470  0.11903377  0.16776557    -0.78570
O277        O  0.29146601  0.17531217  0.20023420    -0.76870
O278        O  0.38400389  0.16785973  0.16168835    -0.81070
O279        O  0.38845170  0.16321649  0.19579221    -0.75930
O280        O  0.28723240  0.12253264  0.16345149    -0.77700
O281        O  0.35236790  0.23390521  0.19473873    -0.80450
C282        C  0.36841481  0.13878446  0.20364897     1.00320
C283        C  0.36740138  0.13782915  0.15957428     1.07760
O284        O  0.33914861  0.17269250  0.18128096    -1.09430
O285        O  0.34140297  0.22156452  0.16109520    -0.71860
O286        O  0.39040381  0.22956742  0.16432384    -0.75350
O287        O  0.33834825  0.12479340  0.20171744    -0.76040
C288        C  0.37061318  0.23500677  0.15739546     0.99220
O289        O  0.39208471  0.22442400  0.19850502    -0.74000
O290        O  0.28089641  0.16445119  0.16609770    -0.79190
C291        C  0.27542113  0.14580255  0.20372237     1.01840
C292        C  0.27466741  0.13854147  0.15945765     1.07760
O293        O  0.27964517  0.12485460  0.19734309    -0.74830
C294        C  0.37863670  0.24022446  0.20111325     1.06060
Fe295      Fe  0.15426845  0.29532816  0.01542802     1.65780
Fe296      Fe  0.22273686  0.36913000  0.01600675     1.73250
Fe297      Fe  0.14986992  0.36264056  0.01554940     1.54420
O298        O  0.12505216  0.33763495  0.99620506    -0.78570
O299        O  0.22337364  0.40276856  0.03114851    -0.76870
O300        O  0.11832853  0.28920866  0.00005307    -0.81070
O301        O  0.12597557  0.28987528  0.03412742    -0.75930
O302        O  0.18074033  0.39981156  0.00091604    -0.77700
O303        O  0.22686289  0.34544592  0.03481041    -0.80450
C304        C  0.10927588  0.30246247  0.03641557     1.00320
C305        C  0.11201232  0.30814784  0.99292917     1.07760
O306        O  0.17564468  0.34234943  0.01577723    -1.09430
O307        O  0.22864233  0.33963863  0.00063189    -0.71860
O308        O  0.18006962  0.29632644  0.99658966    -0.75350
O309        O  0.11455333  0.32801234  0.02975012    -0.76040
C310        C  0.20955936  0.31383930  0.99340595     0.99220
O311        O  0.18750230  0.29476341  0.03051241    -0.74000
O312        O  0.22314488  0.39491026  0.99711885    -0.79190
C313        C  0.20245679  0.40660107  0.03787038     1.01840
C314        C  0.20633992  0.40699205  0.99384317     1.07760
O315        O  0.17271417  0.38976408  0.03485086    -0.74830
C316        C  0.21309264  0.31556977  0.03740900     1.06060
C317        C  0.14284740  0.19090244  0.90301378     0.06240
C318        C  0.14214513  0.21522938  0.89439493    -0.09910
C319        C  0.11856705  0.20740189  0.88304496     0.03740
C320        C  0.09577076  0.17535905  0.87996643    -0.08440
C321        C  0.09659660  0.15085822  0.88797469     0.06230
C322        C  0.12011445  0.15849861  0.89948400    -0.07860
H323        H  0.16050641  0.24025878  0.89600905     0.11820
H324        H  0.07822657  0.16943983  0.87078302     0.09350
H325        H  0.12086418  0.13939471  0.90555953     0.09200
C326        C  0.20489836  0.23654856  0.93609858     0.06240
C327        C  0.22581122  0.22481354  0.93797757    -0.09910
C328        C  0.24802570  0.23596137  0.95038373     0.03740
C329        C  0.24901775  0.25826516  0.96092311    -0.08440
C330        C  0.22829947  0.26974016  0.95915800     0.06230
C331        C  0.20667870  0.25921418  0.94672977    -0.07860
H332        H  0.22504767  0.20744943  0.92991508     0.11820
H333        H  0.26533870  0.26602416  0.97076983     0.09350
H334        H  0.19047989  0.26809725  0.94558467     0.09200
C335        C  0.31631994  0.46287974  0.90141943     0.06240
C336        C  0.34798701  0.47005738  0.89931243    -0.09910
C337        C  0.35458371  0.45311321  0.88831212     0.03740
C338        C  0.32976360  0.42915211  0.87932831    -0.08440
C339        C  0.29844386  0.42233424  0.88102962     0.06230
C340        C  0.29169625  0.43921624  0.89192884    -0.07860
H341        H  0.36741293  0.48882984  0.90613507     0.11820
H342        H  0.33506137  0.41672870  0.87052932     0.09350
H343        H  0.26742931  0.43440349  0.89260840     0.09200
C344        C  0.27415871  0.48112416  0.93408198     0.06240
C345        C  0.28644947  0.01389775  0.93624429    -0.09910
C346        C  0.27852566  0.02495436  0.94957114     0.03740
C347        C  0.25857439  0.00302303  0.96087361    -0.08440
C348        C  0.24657049  0.47082973  0.95873012     0.06230
C349        C  0.25376340  0.45962800  0.94543940    -0.07860
H350        H  0.30213411  0.03088684  0.92757101     0.11820
H351        H  0.25330958  0.01156770  0.97138473     0.09350
H352        H  0.24429545  0.43407882  0.94418197     0.09200
C353        C  0.05940499  0.41596251  0.88807421     0.06240
C354        C  0.08256563  0.41497332  0.87905954    -0.09910
C355        C  0.08990268  0.39127840  0.88166619     0.03740
C356        C  0.07442835  0.36869332  0.89348980    -0.08440
C357        C  0.05161386  0.36985095  0.90300085     0.06230
C358        C  0.04384597  0.39343920  0.90000695    -0.07860
H359        H  0.09379339  0.43173458  0.86952494     0.11820
H360        H  0.07945427  0.34963645  0.89480242     0.09350
H361        H  0.02556535  0.39405461  0.90680791     0.09200
C362        C  0.03509136  0.30975200  0.93645754     0.06240
C363        C  0.50192860  0.28786580  0.93847503    -0.09910
C364        C  0.49093896  0.26756300  0.95156246     0.03740
C365        C  0.01289541  0.26829301  0.96220220    -0.08440
C366        C  0.04578802  0.28803376  0.95960612     0.06230
C367        C  0.05674786  0.30832430  0.94672661    -0.07860
H368        H  0.48474998  0.28838392  0.93065227     0.11820
H369        H  0.00450185  0.25295514  0.97237942     0.09350
H370        H  0.08239580  0.32380733  0.94493896     0.09200
Fe371      Fe  0.11778172  0.31356036  0.82849987     1.65780
Fe372      Fe  0.18648503  0.31217924  0.82775868     1.73250
Fe373      Fe  0.18970258  0.38330301  0.82639449     1.54420
O374        O  0.16491050  0.38374570  0.80726956    -0.78570
O375        O  0.22378755  0.34543449  0.84209323    -0.76870
O376        O  0.11488511  0.34542063  0.81334263    -0.81070
O377        O  0.11937558  0.33960192  0.84732438    -0.75930
O378        O  0.22407087  0.38468849  0.81163173    -0.77700
O379        O  0.16348286  0.28817123  0.84743674    -0.80450
C380        C  0.13525172  0.36963032  0.84944097     1.00320
C381        C  0.13484535  0.36961371  0.80537318     1.07760
O382        O  0.16466405  0.33631488  0.82748887    -1.09430
O383        O  0.15190160  0.27563675  0.81361032    -0.71860
O384        O  0.11253764  0.28554697  0.80977189    -0.75350
O385        O  0.15935930  0.38889862  0.84128003    -0.76040
C386        C  0.12626133  0.27018316  0.80684660     0.99220
O387        O  0.11397320  0.27870496  0.84398386    -0.74000
O388        O  0.21166622  0.33417975  0.80814092    -0.79190
C389        C  0.22983171  0.37115079  0.84889689     1.01840
C390        C  0.22797945  0.36376695  0.80496883     1.07760
O391        O  0.21615904  0.38638626  0.84544953    -0.74830
C392        C  0.13423415  0.27423783  0.85108794     1.06060
C393        C  0.42257131  0.10502489  0.72121822     0.06240
C394        C  0.44426556  0.11500921  0.73376974    -0.09910
C395        C  0.46423794  0.10222899  0.73564516     0.03740
C396        C  0.46194617  0.07950454  0.72492025    -0.08440
C397        C  0.44081884  0.07006444  0.71231668     0.06230
C398        C  0.42106593  0.08270471  0.71050510    -0.07860
H399        H  0.44538679  0.13238012  0.74194413     0.11820
H400        H  0.47748419  0.06984636  0.72609729     0.09350
H401        H  0.40515614  0.07585302  0.70052839     0.09200
C402        C  0.02578542  0.14719383  0.76921336     0.06240
C403        C  0.04886061  0.17946712  0.77266987    -0.09910
C404        C  0.07249742  0.18684744  0.78403869     0.03740
C405        C  0.07321151  0.16219809  0.79197095    -0.08440
C406        C  0.05007864  0.13021771  0.78893146     0.06230
C407        C  0.02629982  0.12267053  0.77773530    -0.07860
H408        H  0.04822100  0.19871477  0.76667651     0.11820
H409        H  0.09084685  0.16795665  0.80108698     0.09350
H410        H  0.00765828  0.09772456  0.77619731     0.09200
Fe411      Fe  0.01907613  0.04790646  0.65806879     1.65780
Fe412      Fe  0.01945122  0.48142155  0.65632225     1.73250
Fe413      Fe  0.44642875  0.47358991  0.65642927     1.54410
O414        O  0.44246614  0.00229270  0.67019019    -0.78570
O415        O  0.49577233  0.45300461  0.63718953    -0.76870
O416        O  0.49113389  0.04300481  0.67654206    -0.81070
O417        O  0.48577077  0.04826342  0.64259834    -0.75930
O418        O  0.44457925  0.44700334  0.67518844    -0.77700
O419        O  0.05748909  0.01470601  0.64200297    -0.80450
C420        C  0.46119635  0.02828823  0.63472410     1.00320
C421        C  0.46110033  0.02657378  0.67846259     1.07760
O422        O  0.49345774  0.49928454  0.65746683    -1.09430
O423        O  0.04464597  0.50649708  0.67554652    -0.71860
O424        O  0.05337836  0.05125792  0.67392309    -0.75350
O425        O  0.44761917  0.99809322  0.63624111    -0.76040
C426        C  0.05906680  0.03103803  0.68018860     0.99220
O427        O  0.04874302  0.05516327  0.63964372    -0.74000
O428        O  0.48573143  0.44006085  0.67101515    -0.79190
C429        C  0.46600780  0.43591896  0.63440466     1.01840
C430        C  0.46035607  0.43365253  0.67815969     1.07760
O431        O  0.44526058  0.43961116  0.64135699    -0.74830
C432        C  0.06395038  0.04146253  0.63621916     1.06060
C433        C  0.34644524  0.37568411  0.77106374     0.06240
C434        C  0.31537146  0.36951393  0.77371079    -0.09910
C435        C  0.31049550  0.38799175  0.78450495     0.03740
C436        C  0.33633389  0.41187661  0.79305133    -0.08440
C437        C  0.36718227  0.41755889  0.79091353     0.06230
C438        C  0.37236427  0.39972797  0.77982982    -0.07860
H439        H  0.29516292  0.35066309  0.76729628     0.11820
H440        H  0.33219959  0.42520725  0.80183022     0.09350
H441        H  0.39631378  0.40399909  0.77828552     0.09200
C442        C  0.38298954  0.31442440  0.72186919     0.06240
C443        C  0.40440865  0.33635361  0.71099861    -0.09910
C444        C  0.41494526  0.36882141  0.71220482     0.03740
C445        C  0.40453146  0.37978034  0.72439089    -0.08440
C446        C  0.38336622  0.35845142  0.73560740     0.06230
C447        C  0.37218488  0.32527304  0.73423159    -0.07860
H448        H  0.41227015  0.32799428  0.70132379     0.11820
H449        H  0.41292375  0.40519074  0.72508164     0.09350
H450        H  0.35573873  0.30816551  0.74263803     0.09200
C451        C  0.11187618  0.46715191  0.76851390     0.06240
C452        C  0.08889410  0.46817735  0.77794558    -0.09910
C453        C  0.07333350  0.44552467  0.78973672     0.03740
C454        C  0.08069582  0.42183458  0.79234424    -0.08440
C455        C  0.10397640  0.42095727  0.78336988     0.06230
C456        C  0.11962605  0.44356546  0.77149509    -0.07860
H457        H  0.08391058  0.48726560  0.77664908     0.11820
H458        H  0.06947701  0.40506834  0.80187655     0.09350
H459        H  0.13808512  0.44310956  0.76477267     0.09200
C460        C  0.18118086  0.06839869  0.71938973     0.06240
C461        C  0.15722974  0.06895395  0.71066040    -0.09910
C462        C  0.12504138  0.04532641  0.71280259     0.03740
C463        C  0.11662893  0.02110002  0.72386438    -0.08440
C464        C  0.14042580  0.02064989  0.73311483     0.06230
C465        C  0.17286240  0.04432226  0.73057793    -0.07860
H466        H  0.16375508  0.08707460  0.70174470     0.11820
H467        H  0.09164923  0.00225614  0.72480945     0.09350
H468        H  0.19158846  0.04391245  0.73721968     0.09200
Fe469      Fe  0.04631858  0.02182273  0.84356739     1.65780
Fe470      Fe  0.47973768  0.02791353  0.84421201     1.73250
Fe471      Fe  0.47371350  0.45486368  0.84707842     1.54410
O472        O  0.00487699  0.44963613  0.83026198    -0.78570
O473        O  0.45332049  0.00718352  0.86378120    -0.76870
O474        O  0.04232776  0.99380090  0.82510843    -0.81070
O475        O  0.05034757  0.49264032  0.85817038    -0.75930
O476        O  0.44709067  0.45138650  0.82798542    -0.77700
O477        O  0.01520004  0.06285112  0.85877470    -0.80450
C478        C  0.02998361  0.46865509  0.86614378     1.00320
C479        C  0.02915452  0.46833926  0.82206150     1.07760
O480        O  0.99956445  0.00126436  0.84499566    -1.09430
O481        O  0.50369666  0.05125534  0.82455813    -0.71860
O482        O  0.05188217  0.05665566  0.82765824    -0.75350
O483        O  0.99996395  0.45521926  0.86427466    -0.76040
C484        C  0.03264523  0.06294585  0.82084886     0.98780
O485        O  0.05392217  0.05167030  0.86187717    -0.74000
O486        O  0.44286806  0.49478737  0.82962220    -0.79190
C487        C  0.43730003  0.47781479  0.86774758     1.01840
C488        C  0.43542318  0.46795977  0.82352874     1.07760
O489        O  0.44066371  0.45597396  0.86178908    -0.74830
C490        C  0.04100855  0.06768303  0.86514077     1.06060
Fe491      Fe  0.28565055  0.14884642  0.49264393     1.65780
Fe492      Fe  0.35380806  0.14647673  0.49239897     1.73250
Fe493      Fe  0.35820321  0.21826417  0.49176669     1.54420
O494        O  0.33422888  0.22087323  0.47275867    -0.78570
O495        O  0.39104670  0.17868458  0.50695258    -0.76870
O496        O  0.28384326  0.18186947  0.47768599    -0.81070
O497        O  0.28643745  0.17384533  0.51169295    -0.75930
O498        O  0.39232916  0.21946324  0.47664420    -0.77700
O499        O  0.33018671  0.12227077  0.51192077    -0.80450
C500        C  0.30284628  0.20353743  0.51464084     1.00320
C501        C  0.30432993  0.20691878  0.47032944     1.07760
O502        O  0.33255461  0.17122265  0.49218036    -1.09430
O503        O  0.31923682  0.11042845  0.47813897    -0.71860
O504        O  0.28107257  0.12174885  0.47365452    -0.75350
O505        O  0.32779933  0.22329489  0.50704900    -0.76040
C506        C  0.29415266  0.10565071  0.47107829     0.99220
O507        O  0.28086269  0.11296318  0.50790661    -0.74000
O508        O  0.37948551  0.16881264  0.47291928    -0.79190
C509        C  0.39707698  0.20395999  0.51414900     1.01840
C510        C  0.39584420  0.19841979  0.46973868     1.07760
O511        O  0.38404940  0.21983606  0.51081342    -0.74830
C512        C  0.30076361  0.10820905  0.51524214     1.06060
C513        C  0.21418015  0.19429354  0.56794464     0.06240
C514        C  0.20578961  0.21758299  0.56558504    -0.09910
C515        C  0.22175440  0.24171478  0.55440729     0.03740
C516        C  0.24611947  0.24279933  0.54550074    -0.08440
C517        C  0.25429004  0.21953352  0.54745930     0.06230
C518        C  0.23828929  0.19521345  0.55854696    -0.07860
H519        H  0.18662632  0.21671183  0.57228843     0.11820
H520        H  0.25769603  0.26089706  0.53652357     0.09350
H521        H  0.24401822  0.17659086  0.55934595     0.09200
C522        C  0.19546402  0.13087013  0.60002173     0.06240
C523        C  0.16216022  0.11246682  0.60305517    -0.09910
C524        C  0.15085144  0.09197652  0.61606762     0.03740
C525        C  0.17266229  0.09024875  0.62606043    -0.08440
C526        C  0.20553360  0.10846895  0.62309577     0.06230
C527        C  0.21676041  0.12828126  0.61005645    -0.07860
H528        H  0.14521605  0.11386518  0.59542304     0.11820
H529        H  0.16410458  0.07537722  0.63638872     0.09350
H530        H  0.24242159  0.14275050  0.60804404     0.09200
C531        C  0.01923964  0.27860910  0.55594988     0.06240
C532        C  0.49520100  0.25557213  0.54543664    -0.09910
C533        C  0.46370192  0.24731935  0.54824270     0.03740
C534        C  0.45649596  0.25873789  0.56152974    -0.08440
C535        C  0.48081407  0.27805652  0.57226063     0.06230
C536        C  0.01165270  0.29003500  0.56919652    -0.07860
H537        H  0.50081183  0.24757618  0.53484034     0.11820
H538        H  0.43199553  0.25249538  0.56355975     0.09350
H539        H  0.03052499  0.30607075  0.57714656     0.09200
C540        C  0.44417719  0.31224838  0.59978865     0.06240
C541        C  0.45025996  0.34359261  0.60172793    -0.09910
C542        C  0.43818514  0.35112532  0.61470583     0.03740
C543        C  0.41913068  0.32715620  0.62543528    -0.08440
C544        C  0.41248260  0.29583354  0.62347970     0.06230
C545        C  0.42535258  0.28843279  0.61078515    -0.07860
H546        H  0.46495586  0.36214904  0.59339233     0.11820
H547        H  0.41001562  0.33306373  0.63552636     0.09350
H548        H  0.42025231  0.26413227  0.60929790     0.09200
C549        C  0.26199698  0.48231035  0.55371527     0.06240
C550        C  0.26207655  0.00941782  0.54498983    -0.09910
C551        C  0.28523585  0.04164910  0.54752053     0.03740
C552        C  0.30926280  0.05001550  0.55874076    -0.08440
C553        C  0.31004790  0.02604584  0.56766397     0.06230
C554        C  0.28535625  0.49051180  0.56531916    -0.07860
H555        H  0.24414314  0.00296197  0.53595184     0.11820
H556        H  0.32779078  0.07507239  0.56002854     0.09350
H557        H  0.28578693  0.47171293  0.57186858     0.09200
C558        C  0.41244525  0.06564080  0.61567707     0.06240
C559        C  0.39198671  0.05696369  0.60265623    -0.09910
C560        C  0.37265532  0.07045204  0.60053843     0.03740
C561        C  0.37430605  0.09248649  0.61151268    -0.08440
C562        C  0.39411212  0.10049367  0.62457770     0.06230
C563        C  0.41326078  0.08725173  0.62659896    -0.07860
H564        H  0.39125933  0.04002286  0.59432590     0.11820
H565        H  0.35914742  0.10255038  0.61019322     0.09350
H566        H  0.42809772  0.09301618  0.63692893     0.09200
Fe567      Fe  0.38116876  0.19395950  0.68223844     1.65780
Fe568      Fe  0.30755088  0.18535264  0.67838181     1.73250
Fe569      Fe  0.31421866  0.11950278  0.67979364     1.54410
O570        O  0.34169087  0.12250342  0.66131924    -0.78570
O571        O  0.27197684  0.15036691  0.69270702    -0.76870
O572        O  0.38959117  0.16535092  0.66734078    -0.81070
O573        O  0.38317030  0.16994319  0.70143448    -0.75930
O574        O  0.27803937  0.11151480  0.66416706    -0.77700
O575        O  0.32767634  0.21381836  0.69759709    -0.80450
C576        C  0.37120608  0.14002109  0.70296384     1.00320
C577        C  0.37162370  0.14045062  0.65922021     1.07760
O578        O  0.33433169  0.16638354  0.68026466    -1.09430
O579        O  0.33937263  0.22200052  0.66346118    -0.71860
O580        O  0.38421399  0.22035616  0.66312833    -0.75350
O581        O  0.34728159  0.11931279  0.69508007    -0.76040
C582        C  0.36683263  0.23053346  0.65796161     0.99220
O583        O  0.37870622  0.22645372  0.69708542    -0.74000
O584        O  0.28476009  0.15934188  0.65894879    -0.79190
C585        C  0.26762860  0.12557518  0.69996429     1.01840
C586        C  0.27177328  0.12966035  0.65632767     1.07760
O587        O  0.28510449  0.11366005  0.69814247    -0.74830
C588        C  0.35645330  0.23013121  0.70228982     1.06060
C589        C  0.39183622  0.11935739  0.63671511    -0.10170
C590        C  0.38534896  0.13142318  0.64711097    -0.11730
C591        C  0.33510044  0.03408320  0.57980292    -0.13330
C592        C  0.35023350  0.06255991  0.58722578    -0.28500
H593        H  0.33932867  0.01527863  0.58351466     0.15700
H594        H  0.34365154  0.08013658  0.58449048     0.16270
C595        C  0.37949427  0.25290105  0.64528371    -0.10170
C596        C  0.39351145  0.27185938  0.63496172    -0.11730
C597        C  0.47273927  0.28941136  0.58646030    -0.13330
C598        C  0.45572127  0.30399322  0.58574968    -0.28500
H599        H  0.48083630  0.28574758  0.59761876     0.15700
H600        H  0.45018351  0.31021461  0.57452427     0.16270
C601        C  0.22819349  0.11007284  0.63433870    -0.10170
C602        C  0.24816761  0.11634334  0.64421700    -0.11730
C603        C  0.19687810  0.16904913  0.58000516    -0.13330
C604        C  0.20974216  0.15329709  0.58670450    -0.28500
H605        H  0.17427254  0.16523363  0.58429563     0.15700
H606        H  0.23366750  0.15939130  0.58336943     0.16270
C607        C  0.27646504  0.21858368  0.53685085    -0.10170
C608        C  0.29142491  0.21464071  0.52694914    -0.11730
C609        C  0.29010368  0.08517927  0.52760323    -0.10170
C610        C  0.28632705  0.06569261  0.53733764    -0.11730
C611        C  0.43934596  0.22891112  0.53684602    -0.10170
C612        C  0.41996642  0.21578665  0.52658570    -0.11730
C613        C  0.24002892  0.10851074  0.70973726    -0.10170
C614        C  0.21420775  0.09097784  0.71557054    -0.11730
C615        C  0.03937700  0.45539924  0.81010499    -0.10170
C616        C  0.05281023  0.44903623  0.80038036    -0.11730
C617        C  0.12897149  0.49125814  0.75600782    -0.13330
C618        C  0.11562525  0.50598790  0.74872451    -0.28500
H619        H  0.15202661  0.49552097  0.75217450     0.15700
H620        H  0.09124636  0.49910867  0.75163045     0.16270
C621        C  0.37151809  0.28092935  0.71916831    -0.10170
C622        C  0.36442386  0.25579512  0.71303951    -0.11730
C623        C  0.39257875  0.43947254  0.80122350    -0.10170
C624        C  0.41235548  0.45484964  0.81109490    -0.11730
C625        C  0.35170706  0.35735853  0.75893314    -0.13330
C626        C  0.37546445  0.37306638  0.74863457    -0.28500
H627        H  0.33474431  0.33174355  0.75781222     0.15700
H628        H  0.38992020  0.39911855  0.74957479     0.16270
C629        C  0.08164359  0.04064157  0.69276149    -0.10170
C630        C  0.10106315  0.04417561  0.70251471    -0.11730
C631        C  0.44836464  0.40999577  0.69014738    -0.10170
C632        C  0.43468610  0.39079102  0.70032992    -0.11730
C633        C  0.44631119  0.04043476  0.62465731    -0.10170
C634        C  0.43120616  0.05115273  0.61887780    -0.11730
C635        C  0.09130377  0.05818475  0.62618247    -0.10170
C636        C  0.11725403  0.07369097  0.62007833    -0.11730
C637        C  0.45528290  0.40922659  0.62403376    -0.10170
C638        C  0.44726240  0.38372294  0.61810602    -0.11730
C639        C  0.04368338  0.08554948  0.80835349    -0.10170
C640        C  0.04831711  0.10548179  0.79875107    -0.11730
C641        C  0.38731553  0.12907932  0.71290740    -0.10170
C642        C  0.40314140  0.11887309  0.71833594    -0.11730
C643        C  0.44807286  0.03686294  0.69038858    -0.10170
C644        C  0.44215332  0.05005502  0.70047206    -0.11730
C645        C  0.48763454  0.11116129  0.74858355    -0.13330
C646        C  0.50185159  0.13936721  0.75625567    -0.28500
H647        H  0.49528960  0.09430054  0.75103915     0.15700
H648        H  0.99623612  0.15829618  0.75367515     0.16270
C649        C  0.25399744  0.37397685  0.79441866    -0.10170
C650        C  0.27876304  0.38060449  0.78827393    -0.11730
C651        C  0.12299350  0.38348302  0.79461716    -0.10170
C652        C  0.11418673  0.39926950  0.78791464    -0.11730
C653        C  0.11062079  0.24400358  0.79610345    -0.10170
C654        C  0.09408794  0.21931107  0.78910107    -0.11730
C655        C  0.04122785  0.45417713  0.87688853    -0.10170
C656        C  0.04949513  0.43793123  0.88358713    -0.11730
C657        C  0.12434566  0.38192557  0.86137989    -0.10170
C658        C  0.11056583  0.38790816  0.87106965    -0.11730
C659        C  0.04896045  0.33198953  0.92306102    -0.13330
C660        C  0.03503350  0.34610552  0.91572747    -0.28500
H661        H  0.07327406  0.33899580  0.91993781     0.15700
H662        H  0.01206636  0.34179529  0.91974038     0.16270
C663        C  0.38693830  0.46210776  0.88471776    -0.10170
C664        C  0.41172170  0.46898071  0.87846894    -0.11730
C665        C  0.27385168  0.40017317  0.87053556    -0.10170
C666        C  0.25372311  0.38457917  0.86088684    -0.11730
C667        C  0.28084860  0.46713861  0.92045349    -0.13330
C668        C  0.30958552  0.48044967  0.91346915    -0.28500
H669        H  0.26221311  0.44285105  0.91735810     0.15700
H670        H  0.32930431  0.50332440  0.91765461     0.16270
C671        C  0.07490305  0.11833231  0.88293241    -0.10170
C672        C  0.05775266  0.09379969  0.87588680    -0.11730
C673        C  0.12001859  0.23192152  0.87317295    -0.10170
C674        C  0.12402687  0.25157654  0.86353294    -0.11730
C675        C  0.16768208  0.19897968  0.91531604    -0.13330
C676        C  0.18121798  0.22695002  0.92319563    -0.28500
H677        H  0.17345444  0.18098673  0.91849826     0.15700
H678        H  0.17281206  0.24325642  0.92087017     0.16270
C679        C  0.21714026  0.42996637  0.98153471    -0.10170
C680        C  0.22903700  0.44886587  0.97105558    -0.11730
C681        C  0.22146899  0.30317430  0.98112774    -0.10170
C682        C  0.22682091  0.28982922  0.97090260    -0.11730
C683        C  0.06853107  0.29003347  0.97091461    -0.10170
C684        C  0.08839362  0.29593109  0.98080456    -0.11730
C685        C  0.38871390  0.11834944  0.13686841    -0.10170
C686        C  0.37696937  0.12488183  0.14735868    -0.11730
C687        C  0.05470809  0.26857968  0.05105461    -0.10170
C688        C  0.08123852  0.28542571  0.04584249    -0.11730
C689        C  0.47192443  0.17386665  0.07997879    -0.13330
C690        C  0.44314440  0.15819800  0.08696874    -0.28500
H691        H  0.49079223  0.17001551  0.08402141     0.15700
H692        H  0.42530179  0.16427911  0.08399326     0.16270
C693        C  0.23359500  0.11334901  0.13624476    -0.10170
C694        C  0.25227961  0.12629528  0.14679546    -0.11730
C695        C  0.21308478  0.43311408  0.04836935    -0.10170
C696        C  0.22164479  0.45861532  0.05445915    -0.11730
C697        C  0.20344981  0.05581908  0.08569528    -0.13330
C698        C  0.21981040  0.04058807  0.08646511    -0.28500
H699        H  0.19562080  0.05966520  0.07449948     0.15700
H700        H  0.22489150  0.03394124  0.09769050     0.16270
C701        C  0.38137647  0.25832422  0.14513643    -0.10170
C702        C  0.38602312  0.27850855  0.13562282    -0.11730
C703        C  0.22875943  0.30454540  0.04761790    -0.10170
C704        C  0.24412240  0.29417656  0.05343673    -0.11730
C705        C  0.32522559  0.28304210  0.08501394    -0.13330
C706        C  0.34012827  0.31145539  0.09250022    -0.28500
H707        H  0.33182817  0.26549497  0.08779207     0.15700
H708        H  0.33598074  0.33029479  0.08875722     0.16270
C709        C  0.28277414  0.22528077  0.03575881    -0.10170
C710        C  0.28869105  0.21272743  0.02536998    -0.11730
C711        C  0.29162422  0.08806960  0.02580832    -0.10170
C712        C  0.27821929  0.06929303  0.03625844    -0.11730
C713        C  0.42244588  0.21916519  0.02748897    -0.10170
C714        C  0.44217556  0.22342910  0.03722481    -0.11730
C715        C  0.43122790  0.23215023  0.96133652    -0.10170
C716        C  0.45728436  0.24823455  0.95538808    -0.11730
C717        C  0.30064400  0.08437795  0.95856554    -0.10170
C718        C  0.29159329  0.05863422  0.95260096    -0.11730
C719        C  0.28508167  0.21424521  0.95917329    -0.10170
C720        C  0.26859110  0.22341506  0.95342749    -0.11730
C721        C  0.39546439  0.26818419  0.21077411    -0.10170
C722        C  0.41283004  0.29419633  0.21656277    -0.11730
C723        C  0.06150999  0.45695905  0.30450520    -0.10170
C724        C  0.05415791  0.46822154  0.31489557    -0.11730
C725        C  0.00882850  0.37360566  0.24719072    -0.13330
C726        C  0.02429679  0.40227143  0.25442346    -0.28500
H727        H  0.01244158  0.35455893  0.25119662     0.15700
H728        H  0.01825046  0.42013273  0.25142543     0.16270
C729        C  0.22417731  0.12655995  0.22072051    -0.10170
C730        C  0.24941702  0.13533613  0.21441372    -0.11730
C731        C  0.05330125  0.09515814  0.31325223    -0.10170
C732        C  0.06711989  0.11455857  0.30309000    -0.11730
C733        C  0.12711963  0.14537503  0.25339467    -0.13330
C734        C  0.14291158  0.12958037  0.25420251    -0.28500
H735        H  0.12273062  0.15264377  0.24217162     0.15700
H736        H  0.15003876  0.12499509  0.26541989     0.16270
C737        C  0.46601465  0.42849878  0.19488493    -0.10170
C738        C  0.46108893  0.40818892  0.20435972    -0.11730
C739        C  0.09355930  0.05927181  0.19324706    -0.10170
C740        C  0.11247744  0.07201032  0.20373999    -0.11730
C741        C  0.43385704  0.39256315  0.12358934    -0.10170
C742        C  0.45130604  0.41858214  0.12936999    -0.11730
C743        C  0.09718823  0.05126057  0.12541028    -0.10170
C744        C  0.12225328  0.05952202  0.11903739    -0.11730
C745        C  0.46821501  0.06524066  0.12506095    -0.10170
C746        C  0.45724089  0.07977950  0.11897618    -0.11730
C747        C  0.39022561  0.10900533  0.22038980    -0.10170
C748        C  0.38024844  0.12440066  0.21421628    -0.11730
C749        C  0.45677644  0.06799737  0.20273184    -0.10170
C750        C  0.46896051  0.06197490  0.19223777    -0.11730
C751        C  0.42259349  0.46566011  0.31022865    -0.10170
C752        C  0.40282171  0.46182075  0.30062470    -0.11730
C753        C  0.36980719  0.01044288  0.25887279    -0.13330
C754        C  0.39833323  0.02543154  0.25156979    -0.28500
H755        H  0.35123138  0.01503020  0.25518949     0.15700
H756        H  0.41558328  0.01840886  0.25427635     0.16270
C757        C  0.28945269  0.41751334  0.28892797    -0.10170
C758        C  0.26383166  0.40017884  0.29499283    -0.11730
C759        C  0.10448802  0.39185482  0.28731428    -0.10170
C760        C  0.11973624  0.38194795  0.29369222    -0.11730
C761        C  0.12225941  0.22649436  0.28620253    -0.10170
C762        C  0.13112440  0.25209713  0.29221446    -0.11730
C763        C  0.06806966  0.45303425  0.38712195    -0.10170
C764        C  0.05265004  0.46314407  0.38122160    -0.11730
C765        C  0.11772318  0.39294073  0.37103658    -0.10170
C766        C  0.12390979  0.38011391  0.36088707    -0.11730
C767        C  0.26112889  0.05389154  0.45415624    -0.10170
C768        C  0.27818000  0.07916030  0.46057816    -0.11730
C769        C  0.15703804  0.46057471  0.41853917    -0.13330
C770        C  0.18751078  0.46761333  0.41774360    -0.28500
H771        H  0.14856579  0.46538316  0.42922986     0.15700
H772        H  0.19712818  0.46439567  0.40705039     0.16270
C773        C  0.44555018  0.21506275  0.45196332    -0.10170
C774        C  0.42124038  0.20836511  0.45870839    -0.11730
C775        C  0.05000855  0.12194352  0.38629695    -0.10170
C776        C  0.04221732  0.09657457  0.38023269    -0.11730
C777        C  0.12703516  0.25247736  0.35849258    -0.10170
C778        C  0.11363784  0.23291165  0.36859822    -0.11730
C779        C  0.05199040  0.21191061  0.41646274    -0.13330
C780        C  0.02309876  0.19733972  0.42342058    -0.28500
H781        H  0.06949007  0.23662666  0.41953353     0.15700
H782        H  0.00414375  0.17391665  0.41937724     0.16270
C783        C  0.28390864  0.23724345  0.45289455    -0.10170
C784        C  0.29326016  0.22179230  0.45959304    -0.11730
C785        C  0.38741320  0.43161383  0.38344229    -0.10170
C786        C  0.41257811  0.44901109  0.37699718    -0.11730
C787        C  0.27454194  0.38645894  0.37130905    -0.10170
C788        C  0.25520512  0.38284552  0.36151533    -0.11730
C789        C  0.30518566  0.33610585  0.41343026    -0.13330
C790        C  0.27547566  0.31830311  0.41944648    -0.28500
H791        H  0.32437821  0.33352010  0.41820638     0.15700
H792        H  0.25690680  0.32275626  0.41570753     0.16270
C793        C  0.05757327  0.27437822  0.46756019    -0.10170
C794        C  0.07743281  0.28885995  0.47747811    -0.11730
C795        C  0.21954850  0.43733675  0.46600999    -0.10170
C796        C  0.21260215  0.41742235  0.47595318    -0.11730
C797        C  0.20109406  0.28241083  0.47749686    -0.10170
C798        C  0.21382899  0.27615176  0.46737132    -0.11730
C799        C  0.24012768  0.44943516  0.54934096    -0.10170
C800        C  0.22300988  0.42418939  0.54287488    -0.11730
C801        C  0.07657155  0.29766634  0.54504492    -0.10170
C802        C  0.05188461  0.28951380  0.55177893    -0.11730
C803        C  0.20234640  0.27960112  0.54428289    -0.10170
C804        C  0.21104100  0.26329581  0.55053042    -0.11730
Fe805      Fe  0.14142705  0.78786045  0.51122362     1.65780
Fe806      Fe  0.14666589  0.85993726  0.51147549     1.73250
Fe807      Fe  0.21446010  0.85671725  0.51058246     1.54420
O808        O  0.21577350  0.82330840  0.52532919    -0.78570
O809        O  0.17041329  0.88462514  0.49204824    -0.76870
O810        O  0.16512461  0.78461853  0.53011256    -0.81070
O811        O  0.17151360  0.78259813  0.49589793    -0.75930
O812        O  0.21987523  0.88399215  0.52966843    -0.77700
O813        O  0.10905757  0.82834559  0.49688264    -0.80450
C814        C  0.19657646  0.80215256  0.48835005     1.00320
C815        C  0.19498822  0.79828738  0.53257317     1.07760
O816        O  0.16755106  0.83485310  0.51118914    -1.09430
O817        O  0.12085564  0.83700518  0.53092689    -0.71860
O818        O  0.10728357  0.78642125  0.52633946    -0.75350
O819        O  0.21329298  0.83179263  0.49137262    -0.76040
C820        C  0.10395251  0.80718226  0.53362015     0.99220
O821        O  0.11597964  0.78736157  0.49227525    -0.74000
O822        O  0.18166999  0.89549326  0.52578981    -0.79190
C823        C  0.19972809  0.89814908  0.48852963     1.01840
C824        C  0.20709697  0.90028839  0.53249310     1.07760
O825        O  0.21947100  0.89277208  0.49555287    -0.74830
C826        C  0.10284581  0.80332218  0.48938370     1.06060
C827        C  0.35424777  0.91450948  0.38942954     0.06240
C828        C  0.32959027  0.91133635  0.37978156    -0.09910
C829        C  0.29761041  0.88835210  0.38300139     0.03740
C830        C  0.29011247  0.86806537  0.39585879    -0.08440
C831        C  0.31457943  0.87120571  0.40577808     0.06230
C832        C  0.34675330  0.89482330  0.40262095    -0.07860
H833        H  0.33536846  0.92623140  0.36949874     0.11820
H834        H  0.26527189  0.85001221  0.39822000     0.09350
H835        H  0.36580291  0.89717937  0.41010220     0.09200
C836        C  0.26936844  0.75352831  0.44862437     0.06240
C837        C  0.24854578  0.75697262  0.45837252    -0.09910
C838        C  0.24111574  0.78054370  0.45537315     0.03740
C839        C  0.25480778  0.80108731  0.44260768    -0.08440
C840        C  0.27540307  0.79757005  0.43258299     0.06230
C841        C  0.28239127  0.77343083  0.43554571    -0.07860
H842        H  0.23888941  0.74192862  0.46859963     0.11820
H843        H  0.24927623  0.81960315  0.44039454     0.09350
H844        H  0.29859822  0.77084375  0.42800598     0.09200
C845        C  0.05696317  0.65329996  0.38914786     0.06240
C846        C  0.04128642  0.66236224  0.39972791    -0.09910
C847        C  0.04834345  0.69432197  0.39992430     0.03740
C848        C  0.07100514  0.71672738  0.38954221    -0.08440
C849        C  0.08703655  0.70777135  0.37928434     0.06230
C850        C  0.08005531  0.67615409  0.37909677    -0.07860
H851        H  0.02286659  0.64448767  0.40724165     0.11820
H852        H  0.07609425  0.74120575  0.38940621     0.09350
H853        H  0.09154966  0.66899871  0.37064851     0.09200
C854        C  0.47737451  0.72515883  0.44935033     0.06240
C855        C  0.48375958  0.70884106  0.43787332    -0.09910
C856        C  0.01895716  0.71510723  0.43619245     0.03740
C857        C  0.04303588  0.73833565  0.44585820    -0.08440
C858        C  0.03596658  0.75575908  0.45625106     0.06230
C859        C  0.00476629  0.74972209  0.45716301    -0.07860
H860        H  0.46432321  0.69084982  0.43075862     0.11820
H861        H  0.06714901  0.74256053  0.44539951     0.09350
H862        H  0.99905757  0.76220401  0.46574629     0.09200
C863        C  0.24663888  0.51810449  0.44921661     0.06240
C864        C  0.24466235  0.49407388  0.45892987    -0.09910
C865        C  0.21579615  0.96495319  0.45649215     0.03740
C866        C  0.19079867  0.95662732  0.44590846    -0.08440
C867        C  0.18994984  0.98044774  0.43691156     0.06230
C868        C  0.22825409  0.50974896  0.43554696    -0.07860
H869        H  0.25811485  0.50052740  0.46974159     0.11820
H870        H  0.17166447  0.93169704  0.44518780     0.09350
H871        H  0.22924886  0.52828247  0.42815584     0.09200
C872        C  0.08703331  0.93951674  0.38906976     0.06240
C873        C  0.10677784  0.94833782  0.40236179    -0.09910
C874        C  0.12615337  0.93506845  0.40489336     0.03740
C875        C  0.12539498  0.91324628  0.39411249    -0.08440
C876        C  0.10653248  0.90530496  0.38075781     0.06230
C877        C  0.08718730  0.91818735  0.37827258    -0.07860
H878        H  0.10699475  0.96522097  0.41056866     0.11820
H879        H  0.14071393  0.90344162  0.39577627     0.09350
H880        H  0.07303925  0.91242625  0.36770256     0.09200
Fe881      Fe  0.19085077  0.88610846  0.32776748     1.65780
Fe882      Fe  0.19435885  0.81836162  0.32522695     1.73250
Fe883      Fe  0.12242204  0.81351491  0.32384374     1.54410
O884        O  0.11471370  0.84236342  0.33864389    -0.78570
O885        O  0.17238488  0.79296632  0.30540434    -0.76870
O886        O  0.16287067  0.88213506  0.34624203    -0.81070
O887        O  0.15937166  0.88904841  0.31233114    -0.75930
O888        O  0.11971123  0.78668975  0.34266582    -0.77700
O889        O  0.23021650  0.85398592  0.31134296    -0.80450
C890        C  0.13575054  0.86938012  0.30388957     1.00320
C891        C  0.13265091  0.86589704  0.34741456     1.07760
O892        O  0.16935879  0.83937746  0.32552876    -1.09430
O893        O  0.21882725  0.84099257  0.34504940    -0.71860
O894        O  0.22483374  0.88950170  0.34370987    -0.75350
O895        O  0.12238274  0.83915600  0.30497953    -0.76040
C896        C  0.23091422  0.86948149  0.34982334     0.99220
O897        O  0.22099614  0.89427761  0.30954912    -0.74000
O898        O  0.16168051  0.78056537  0.33934604    -0.79190
C899        C  0.14271446  0.77591593  0.30241855     1.01840
C900        C  0.13569885  0.77373018  0.34606374     1.07760
O901        O  0.12184983  0.77976275  0.30905250    -0.74830
C902        C  0.23623038  0.88079832  0.30579041     1.06060
C903        C  0.32106621  0.93780032  0.28493598     0.06240
C904        C  0.32917222  0.96186687  0.27374926    -0.09910
C905        C  0.36161880  0.98519968  0.27090702     0.03740
C906        C  0.38558866  0.98445620  0.27985744    -0.08440
C907        C  0.37732955  0.96030962  0.29093366     0.06230
C908        C  0.34518829  0.93697184  0.29334743    -0.07860
H909        H  0.31032272  0.96257568  0.26738003     0.11820
H910        H  0.41059340  0.00314173  0.27871632     0.09350
H911        H  0.33884783  0.91895437  0.30230131     0.09200
C912        C  0.40919118  0.54985069  0.23845550     0.06240
C913        C  0.43134582  0.55128113  0.22768203    -0.09910
C914        C  0.44063052  0.57190882  0.21493896     0.03740
C915        C  0.42860562  0.59212642  0.21303698    -0.08440
C916        C  0.40685788  0.59151807  0.22375201     0.06230
C917        C  0.39682182  0.57019512  0.23645113    -0.07860
H918        H  0.44056619  0.53536976  0.22890289     0.11820
H919        H  0.43537555  0.60761698  0.20292832     0.09350
H920        H  0.37974298  0.56959111  0.24461435     0.09200
Fe921      Fe  0.45952520  0.99303055  0.15836606     1.65780
Fe922      Fe  0.03214908  0.56030634  0.15963383     1.73250
Fe923      Fe  0.02729648  0.98968756  0.15901323     1.54420
O924        O  0.50122669  0.96401887  0.17820612    -0.78570
O925        O  0.06684121  0.56256302  0.14464628    -0.76870
O926        O  0.45309969  0.95764997  0.17406560    -0.81070
O927        O  0.45397338  0.96385090  0.13999411    -0.75930
O928        O  0.06620253  0.52159408  0.17435035    -0.77700
O929        O  0.51007569  0.56256794  0.13851189    -0.80450
C930        C  0.46684569  0.94738642  0.13774381     1.00320
C931        C  0.47178390  0.95124884  0.18134668     1.07760
O932        O  0.00706869  0.51315036  0.15991177    -1.09430
O933        O  0.00158000  0.56495853  0.17485146    -0.71860
O934        O  0.46459621  0.51972977  0.17851436    -0.75350
O935        O  0.99320794  0.95442252  0.14428832    -0.76040
C936        C  0.48147642  0.54975062  0.18062199     0.99220
O937        O  0.45993701  0.52427974  0.14448268    -0.74000
O938        O  0.05829722  0.56205990  0.17864559    -0.79190
C939        C  0.07121721  0.54222817  0.13762605     1.01840
C940        C  0.07194377  0.54662104  0.18170228     1.07760
O941        O  0.05481546  0.51236033  0.14033424    -0.74830
C942        C  0.47997702  0.54873621  0.13665911     1.06060
C943        C  0.11456220  0.64945148  0.26830812     0.06240
C944        C  0.12229285  0.68129430  0.27024186    -0.09910
C945        C  0.11180962  0.68990242  0.28341938     0.03740
C946        C  0.09265292  0.66652032  0.29438886    -0.08440
C947        C  0.08433992  0.63463720  0.29240140     0.06230
C948        C  0.09565932  0.62616106  0.27946853    -0.07860
H949        H  0.13714513  0.69941414  0.26175915     0.11820
H950        H  0.08476972  0.67328079  0.30464841     0.09350
H951        H  0.08945447  0.60149684  0.27796838     0.09200
C952        C  0.15280849  0.61701786  0.24092637     0.06240
C953        C  0.18477270  0.62527575  0.23870983    -0.09910
C954        C  0.19332831  0.61586038  0.22509378     0.03740
C955        C  0.16986159  0.59737472  0.21398238    -0.08440
C956        C  0.13802686  0.58866905  0.21623668     0.06230
C957        C  0.12951785  0.59863390  0.22960759    -0.07860
H958        H  0.20300628  0.63989348  0.24723884     0.11820
H959        H  0.17655236  0.59050153  0.20335810     0.09350
H960        H  0.10479406  0.59203334  0.23121993     0.09200
C961        C  0.03579788  0.89347441  0.27046343     0.06240
C962        C  0.05968181  0.88585245  0.27263033    -0.09910
C963        C  0.08309840  0.90121199  0.28424409     0.03740
C964        C  0.08277988  0.92416415  0.29380197    -0.08440
C965        C  0.05887591  0.93152633  0.29199936     0.06230
C966        C  0.03537467  0.91616692  0.28044533    -0.07860
H967        H  0.05980342  0.86771644  0.26543937     0.11820
H968        H  0.10027794  0.93522199  0.30310416     0.09350
H969        H  0.01625675  0.92119467  0.27971208     0.09200
C970        C  0.47236009  0.87463320  0.23794792     0.06240
C971        C  0.47061774  0.89618430  0.22776844    -0.09910
C972        C  0.45093355  0.88512611  0.21464208     0.03740
C973        C  0.43198720  0.85220887  0.21173697    -0.08440
C974        C  0.43287197  0.83015483  0.22187652     0.06230
C975        C  0.45329897  0.84128572  0.23496485    -0.07860
H976        H  0.48555491  0.92185935  0.22977499     0.11820
H977        H  0.41713374  0.84377621  0.20136698     0.09350
H978        H  0.45408584  0.82419629  0.24273261     0.09200
Fe979      Fe  0.48112520  0.52803002  0.34680712     1.65780
Fe980      Fe  0.05117764  0.53033824  0.35027094     1.73250
Fe981      Fe  0.48275804  0.95976934  0.34638907     1.54420
O982        O  0.45460582  0.95484020  0.36503924    -0.78570
O983        O  0.05871804  0.50141703  0.33537318    -0.76870
O984        O  0.44482781  0.49222056  0.36057001    -0.81070
O985        O  0.45809160  0.50499873  0.32685487    -0.75930
O986        O  0.01458008  0.95679640  0.36109078    -0.77700
O987        O  0.05485452  0.55737594  0.33130359    -0.80450
C988        C  0.44337243  0.97578732  0.32353327     1.00320
C989        C  0.43905668  0.96852026  0.36769371     1.07760
O990        O  0.00419026  0.50400173  0.34837953    -1.09430
O991        O  0.05063351  0.56358390  0.36511026    -0.71860
O992        O  0.00008728  0.55199059  0.36663722    -0.75350
O993        O  0.44781140  0.95562148  0.33076037    -0.76040
C994        C  0.02924736  0.56799013  0.37074958     0.99220
O995        O  0.01123694  0.56118788  0.33251487    -0.74000
O996        O  0.05313570  0.00675400  0.36727707    -0.79190
C997        C  0.03894358  0.97723612  0.32500199     1.01840
C998        C  0.03909893  0.97661736  0.36898900     1.07760
O999        O  0.00897063  0.96114715  0.32716216    -0.74830
C1000       C  0.03824418  0.56889119  0.32668223     1.06060
Fe1001     Fe  0.28898246  0.64846554  0.99011533     1.65780
Fe1002     Fe  0.36121685  0.65381067  0.99231020     1.73250
Fe1003     Fe  0.35769650  0.72160142  0.99266534     1.54420
O1004       O  0.32522827  0.72336252  0.97719013    -0.78570
O1005       O  0.38521144  0.67788467  0.01190110    -0.76870
O1006       O  0.28760760  0.67299597  0.97104256    -0.81070
O1007       O  0.28200968  0.67784748  0.00507267    -0.75930
O1008       O  0.38705460  0.72793465  0.97428725    -0.77700
O1009       O  0.32878121  0.61692950  0.00702851    -0.80450
C1010       C  0.30067360  0.70215264  0.01333928     1.00320
C1011       C  0.30079290  0.70305319  0.96932721     1.07760
O1012       O  0.33602682  0.67463534  0.99155438    -1.09430
O1013       O  0.33962474  0.62704581  0.97279420    -0.71860
O1014       O  0.28900055  0.61477270  0.97524155    -0.75350
O1015       O  0.33064598  0.71906790  0.01123785    -0.76040
C1016       C  0.31025995  0.61074049  0.96907536     0.99220
O1017       O  0.28620984  0.62224075  0.00921111    -0.74000
O1018       O  0.39733172  0.68874194  0.97813912    -0.79190
C1019       C  0.39843875  0.70710328  0.01560406     1.01840
C1020       C  0.40309814  0.71474506  0.97163479     1.07760
O1021       O  0.39284993  0.72671116  0.00857380    -0.74830
C1022       C  0.30261117  0.61029076  0.01348406     1.06060
C1023       C  0.26183176  0.77827161  0.05692415     0.06240
C1024       C  0.26075281  0.75641342  0.04609050    -0.09910
C1025       C  0.27963003  0.74290598  0.04820018     0.03740
C1026       C  0.29941669  0.75088530  0.06127633    -0.08440
C1027       C  0.30127776  0.77317043  0.07215605     0.06230
C1028       C  0.28219268  0.78689000  0.06995051    -0.07860
H1029       H  0.24595752  0.75068912  0.03574645     0.11820
H1030       H  0.31441725  0.74065936  0.06266276     0.09350
H1031       H  0.28306117  0.80401098  0.07821002     0.09200
C1032       C  0.41091259  0.85981746  0.11884532     0.06240
C1033       C  0.38714624  0.85106307  0.10743545    -0.09910
C1034       C  0.36395298  0.81850534  0.10480358     0.03740
C1035       C  0.36455998  0.79491612  0.11410756    -0.08440
C1036       C  0.38836964  0.80372402  0.12548988     0.06230
C1037       C  0.41155692  0.83612190  0.12777197    -0.07860
H1038       H  0.38655271  0.86958306  0.10070584     0.11820
H1039       H  0.34603370  0.76981709  0.11297833     0.09350
H1040       H  0.42937095  0.84298222  0.13690265     0.09200
C1041       C  0.22936538  0.53202383  0.07319670     0.06240
C1042       C  0.24769361  0.55520678  0.06184967    -0.09910
C1043       C  0.25865446  0.54668154  0.04877963     0.03740
C1044       C  0.25062782  0.51492705  0.04681906    -0.08440
C1045       C  0.23299130  0.99087608  0.05720223     0.06230
C1046       C  0.22273338  0.99954105  0.07047177    -0.07860
H1047       H  0.25378984  0.57984213  0.06331426     0.11820
H1048       H  0.25828122  0.50820552  0.03646106     0.09350
H1049       H  0.20813687  0.98146310  0.07901973     0.09200
C1050       C  0.15562544  0.57164717  0.11707451     0.06240
C1051       C  0.16317805  0.56087478  0.10357433    -0.09910
C1052       C  0.19464970  0.56754497  0.10127317     0.03740
C1053       C  0.21848669  0.58566635  0.11244929    -0.08440
C1054       C  0.21103356  0.59713618  0.12567385     0.06230
C1055       C  0.17967432  0.58995838  0.12796565    -0.07860
H1056       H  0.14453474  0.54657834  0.09515569     0.11820
H1057       H  0.24283330  0.59113952  0.11076355     0.09350
H1058       H  0.17379228  0.59801318  0.13845715     0.09200
C1059       C  0.02140415  0.74373009  0.05470091     0.06240
C1060       C  0.99780292  0.74492957  0.04593713    -0.09910
C1061       C  0.46508626  0.72227471  0.04798538     0.03740
C1062       C  0.45632210  0.69777519  0.05896906    -0.08440
C1063       C  0.47995681  0.69664115  0.06804152     0.06230
C1064       C  0.01261379  0.71917923  0.06561974    -0.07860
H1065       H  0.00473395  0.76343931  0.03719358     0.11820
H1066       H  0.43124318  0.67922673  0.05997552     0.09350
H1067       H  0.03110286  0.71831460  0.07225743     0.09200
C1068       C  0.44255797  0.59641509  0.11663826     0.06240
C1069       C  0.44991333  0.61527392  0.10312828    -0.09910
C1070       C  0.43616722  0.63431346  0.10074666     0.03740
C1071       C  0.41527250  0.63403431  0.11192714    -0.08440
C1072       C  0.40874358  0.61597028  0.12547948     0.06230
C1073       C  0.42213327  0.59702715  0.12777812    -0.07860
H1074       H  0.46607136  0.61507380  0.09463820     0.11820
H1075       H  0.40512206  0.64907854  0.11039512     0.09350
H1076       H  0.41742902  0.58349391  0.13846875     0.09200
Fe1077     Fe  0.38876120  0.69752527  0.18076361     1.65780
Fe1078     Fe  0.32010761  0.69949902  0.18166622     1.73250
Fe1079     Fe  0.31631563  0.62788690  0.18321854     1.54420
O1080       O  0.34582436  0.62147307  0.16829439    -0.78570
O1081       O  0.29378895  0.67703885  0.20114508    -0.76870
O1082       O  0.38669316  0.67026341  0.16226943    -0.81070
O1083       O  0.39140572  0.66595770  0.19635748    -0.75930
O1084       O  0.28961927  0.62480790  0.16419027    -0.77700
O1085       O  0.35466956  0.73586104  0.19592319    -0.80450
C1086       C  0.37149383  0.64128406  0.20411848     1.00320
C1087       C  0.37011326  0.64022251  0.16016628     1.07760
O1088       O  0.34177166  0.67506224  0.18199991    -1.09430
O1089       O  0.34371688  0.72428539  0.16216271    -0.71860
O1090       O  0.39264485  0.73178496  0.16477121    -0.75350
O1091       O  0.34139693  0.62709422  0.20221146    -0.76040
C1092       C  0.37269672  0.73735296  0.15810808     0.99220
O1093       O  0.39518768  0.72736495  0.19903441    -0.74000
O1094       O  0.28334385  0.66675469  0.16693838    -0.79190
C1095       C  0.27789279  0.64747911  0.20453644     1.01840
C1096       C  0.27694986  0.64077808  0.16028500     1.07760
O1097       O  0.28237583  0.62677204  0.19809216    -0.74830
C1098       C  0.38129650  0.74259130  0.20205042     1.06060
Fe1099     Fe  0.15408805  0.79393001  0.01527890     1.65780
Fe1100     Fe  0.22238437  0.86789175  0.01573284     1.73250
Fe1101     Fe  0.14936686  0.86108536  0.01561807     1.54420
O1102       O  0.12434275  0.83602906  0.99632376    -0.78570
O1103       O  0.22310956  0.90151282  0.03083362    -0.76870
O1104       O  0.11822451  0.78776563  0.99987902    -0.81070
O1105       O  0.12566988  0.78814667  0.03397076    -0.75930
O1106       O  0.18003417  0.89835974  0.00092431    -0.77700
O1107       O  0.22677306  0.84434041  0.03452055    -0.80450
C1108       C  0.10899148  0.80067828  0.03644855     1.00320
C1109       C  0.11168427  0.80665786  0.99287979     1.07760
O1110       O  0.17528551  0.84094372  0.01565707    -1.09430
O1111       O  0.22837040  0.83856867  0.00033932    -0.71860
O1112       O  0.17993012  0.79503487  0.99643368    -0.75350
O1113       O  0.11422409  0.82635055  0.02991964    -0.76040
C1114       C  0.20934092  0.81272974  0.99315197     0.99220
O1115       O  0.18732585  0.79359218  0.03040874    -0.74000
O1116       O  0.22244338  0.89357241  0.99687497    -0.79190
C1117       C  0.20230480  0.90531167  0.03767119     1.01840
C1118       C  0.20559366  0.90568304  0.99375626     1.07760
O1119       O  0.17247989  0.88827595  0.03487016    -0.74830
C1120       C  0.21291212  0.81450767  0.03726396     1.06060
C1121       C  0.14445401  0.69372999  0.90179710     0.06240
C1122       C  0.14338439  0.71800790  0.89326883    -0.09910
C1123       C  0.11936612  0.71004627  0.88209894     0.03740
C1124       C  0.09651451  0.67793208  0.87915968    -0.08440
C1125       C  0.09767277  0.65352996  0.88708751     0.06230
C1126       C  0.12159034  0.66130914  0.89838030    -0.07860
H1127       H  0.16172260  0.74305844  0.89480480     0.11820
H1128       H  0.07862946  0.67187069  0.87013575     0.09350
H1129       H  0.12254667  0.64224850  0.90438472     0.09200
C1130       C  0.20691226  0.73837019  0.93492898     0.06240
C1131       C  0.22736077  0.72608668  0.93699551    -0.09910
C1132       C  0.24874829  0.73631292  0.94976144     0.03740
C1133       C  0.24923912  0.75810809  0.96045979    -0.08440
C1134       C  0.22893696  0.77001861  0.95852621     0.06230
C1135       C  0.20825876  0.76053137  0.94574871    -0.07860
H1136       H  0.22687523  0.70905719  0.92880169     0.11820
H1137       H  0.26485394  0.76514298  0.97056161     0.09350
H1138       H  0.19237612  0.76976799  0.94448270     0.09200
C1139       C  0.31524953  0.96254114  0.90122110     0.06240
C1140       C  0.34688134  0.96966663  0.89906037    -0.09910
C1141       C  0.35344604  0.95297416  0.88790611     0.03740
C1142       C  0.32862251  0.92932346  0.87880111    -0.08440
C1143       C  0.29731499  0.92254053  0.88054916     0.06230
C1144       C  0.29059261  0.93914823  0.89163691    -0.07860
H1145       H  0.36632019  0.98822141  0.90596542     0.11820
H1146       H  0.33391380  0.91712173  0.86987913     0.09350
H1147       H  0.26634925  0.93437939  0.89238824     0.09200
C1148       C  0.27351916  0.98060883  0.93419227     0.06240
C1149       C  0.28686544  0.51439630  0.93603125    -0.09910
C1150       C  0.27870348  0.52545424  0.94927562     0.03740
C1151       C  0.25877172  0.50358226  0.96059023    -0.08440
C1152       C  0.24611086  0.97022566  0.95890895     0.06230
C1153       C  0.25310998  0.95907081  0.94553476    -0.07860
H1154       H  0.30256914  0.53135650  0.92735364     0.11820
H1155       H  0.25336405  0.51215372  0.97105033     0.09350
H1156       H  0.24345089  0.93350474  0.94418982     0.09200
C1157       C  0.05846120  0.91479922  0.88869250     0.06240
C1158       C  0.08172613  0.91459739  0.87941222    -0.09910
C1159       C  0.08964065  0.89119521  0.88159667     0.03740
C1160       C  0.07459153  0.86810904  0.89329576    -0.08440
C1161       C  0.05160212  0.86847617  0.90303075     0.06230
C1162       C  0.04335843  0.89181586  0.90045263    -0.07860
H1163       H  0.09255752  0.93172962  0.86998622     0.11820
H1164       H  0.08005000  0.84931303  0.89432125     0.09350
H1165       H  0.02496091  0.89183658  0.90742859     0.09200
C1166       C  0.03510084  0.80752841  0.93602957     0.06240
C1167       C  0.50094582  0.78775190  0.93874690    -0.09910
C1168       C  0.49015327  0.76732149  0.95179528     0.03740
C1169       C  0.01299665  0.76693497  0.96208250    -0.08440
C1170       C  0.04586091  0.78632288  0.95933655     0.06230
C1171       C  0.05678802  0.80616504  0.94629677    -0.07860
H1172       H  0.48365074  0.78810817  0.93094521     0.11820
H1173       H  0.00465642  0.75196477  0.97238488     0.09350
H1174       H  0.08242523  0.82143390  0.94440748     0.09200
Fe1175     Fe  0.11744084  0.81576120  0.82718980     1.65780
Fe1176     Fe  0.18599762  0.81392924  0.82652631     1.73250
Fe1177     Fe  0.18972956  0.88541802  0.82537108     1.54420
O1178       O  0.16513972  0.88670334  0.80629433    -0.78570
O1179       O  0.22317696  0.84675183  0.84106590    -0.76870
O1180       O  0.11499875  0.84780582  0.81183025    -0.81070
O1181       O  0.11883861  0.84180245  0.84595903    -0.75930
O1182       O  0.22403517  0.88665791  0.81046026    -0.77700
O1183       O  0.16271055  0.78972220  0.84611133    -0.80450
C1184       C  0.13511759  0.87168472  0.84843633     1.00320
C1185       C  0.13513272  0.87239803  0.80409059     1.07760
O1186       O  0.16438009  0.83834096  0.82626835    -1.09430
O1187       O  0.15143607  0.77760643  0.81222589    -0.71860
O1188       O  0.11200687  0.78746115  0.80854037    -0.75350
O1189       O  0.15957067  0.89105021  0.84047382    -0.76040
C1190       C  0.12568143  0.77207936  0.80554884     0.99220
O1191       O  0.11339040  0.78091134  0.84288623    -0.74000
O1192       O  0.21167540  0.83613738  0.80701366    -0.79190
C1193       C  0.22933360  0.87244938  0.84792679     1.01840
C1194       C  0.22803924  0.86572906  0.80381949     1.07760
O1195       O  0.21603077  0.88799514  0.84440690    -0.74830
C1196       C  0.13358168  0.77617857  0.84992155     1.06060
C1197       C  0.42034852  0.60618963  0.72225735     0.06240
C1198       C  0.44164756  0.61577289  0.73498831    -0.09910
C1199       C  0.46108791  0.60241159  0.73706597     0.03740
C1200       C  0.45872492  0.57962580  0.72637407    -0.08440
C1201       C  0.43814012  0.57070945  0.71359336     0.06230
C1202       C  0.41887238  0.58383801  0.71157342    -0.07860
H1203       H  0.44287421  0.63322428  0.74314460     0.11820
H1204       H  0.47388526  0.56956041  0.72769693     0.09350
H1205       H  0.40333390  0.57729963  0.70146628     0.09200
C1206       C  0.02442725  0.64824086  0.76836200     0.06240
C1207       C  0.04773237  0.68065297  0.77156304    -0.09910
C1208       C  0.07153845  0.68844025  0.78291629     0.03740
C1209       C  0.07241122  0.66405814  0.79100954    -0.08440
C1210       C  0.04930972  0.63198910  0.78819066     0.06230
C1211       C  0.02527419  0.62402305  0.77706130    -0.07860
H1212       H  0.04702318  0.69974430  0.76544945     0.11820
H1213       H  0.09018335  0.67011420  0.80009121     0.09350
H1214       H  0.00682600  0.59898667  0.77580218     0.09200
Fe1215     Fe  0.01654230  0.54958744  0.65631692     1.65780
Fe1216     Fe  0.02150418  0.97954236  0.65596747     1.73250
Fe1217     Fe  0.44932581  0.97303563  0.65505936     1.54410
O1218       O  0.43997024  0.50298333  0.67161797    -0.78570
O1219       O  0.49914312  0.95259521  0.63603731    -0.76870
O1220       O  0.48878978  0.54331558  0.67806508    -0.81070
O1221       O  0.48337949  0.54888165  0.64417282    -0.75930
O1222       O  0.44767761  0.94668691  0.67392368    -0.77700
O1223       O  0.05496400  0.51555402  0.64173961    -0.80450
C1224       C  0.45886440  0.52909373  0.63622966     1.00320
C1225       C  0.45872578  0.52713817  0.67992643     1.07760
O1226       O  0.49639088  0.99913290  0.65607443    -1.09430
O1227       O  0.04635790  0.00232233  0.67564449    -0.71860
O1228       O  0.05215260  0.55522295  0.67175044    -0.75350
O1229       O  0.44507081  0.49888703  0.63768140    -0.76040
C1230       C  0.05793794  0.53594980  0.67890052     0.99220
O1231       O  0.04479331  0.55468650  0.63762575    -0.74000
O1232       O  0.48930517  0.94036876  0.67003951    -0.79190
C1233       C  0.46938897  0.93519948  0.63331484     1.01840
C1234       C  0.46379461  0.93379733  0.67714561     1.07760
O1235       O  0.44855653  0.93902052  0.64010895    -0.74830
C1236       C  0.06068207  0.54132167  0.63504291     1.06060
C1237       C  0.34848248  0.88110706  0.76918897     0.06240
C1238       C  0.31702564  0.87443177  0.77159145    -0.09910
C1239       C  0.31098358  0.89102248  0.78306266     0.03740
C1240       C  0.33613712  0.91395998  0.79227048    -0.08440
C1241       C  0.36721942  0.92023584  0.79030464     0.06230
C1242       C  0.37344822  0.90387765  0.77885573    -0.07860
H1243       H  0.29734207  0.85631490  0.76463592     0.11820
H1244       H  0.33126408  0.92601686  0.80143855     0.09350
H1245       H  0.39752314  0.90825215  0.77789322     0.09200
C1246       C  0.38493583  0.81648020  0.72185837     0.06240
C1247       C  0.40620485  0.83768883  0.71069176    -0.09910
C1248       C  0.41933789  0.87069630  0.71219145     0.03740
C1249       C  0.41155103  0.88276368  0.72499696    -0.08440
C1250       C  0.38987045  0.86195835  0.73622645     0.06230
C1251       C  0.37638400  0.82847203  0.73460275    -0.07860
H1252       H  0.41205799  0.82841691  0.70063605     0.11820
H1253       H  0.42177236  0.90847961  0.72600675     0.09350
H1254       H  0.35983588  0.81200511  0.74319302     0.09200
C1255       C  0.09511692  0.95850253  0.76587348     0.06240
C1256       C  0.07273391  0.95757708  0.77633483    -0.09910
C1257       C  0.06430722  0.93868363  0.78968299     0.03740
C1258       C  0.07732870  0.91961471  0.79251365    -0.08440
C1259       C  0.09930382  0.91969508  0.78214633     0.06230
C1260       C  0.10858052  0.93936954  0.76882690    -0.07860
H1261       H  0.06277657  0.97269293  0.77441353     0.11820
H1262       H  0.07118243  0.90550495  0.80308869     0.09350
H1263       H  0.12590135  0.93967142  0.76092754     0.09200
C1264       C  0.17611970  0.57012515  0.72095839     0.06240
C1265       C  0.15496822  0.57224771  0.71067621    -0.09910
C1266       C  0.12189923  0.55313471  0.71285886     0.03740
C1267       C  0.10979512  0.53196485  0.72539653    -0.08440
C1268       C  0.13052345  0.52909697  0.73572408     0.06230
C1269       C  0.16402412  0.54842935  0.73347567    -0.07860
H1270       H  0.16424114  0.58821252  0.70073889     0.11820
H1271       H  0.08400434  0.51692070  0.72684774     0.09350
H1272       H  0.18054199  0.54691103  0.74136494     0.09200
Fe1273     Fe  0.04848888  0.52502585  0.84292903     1.65780
Fe1274     Fe  0.48023106  0.52754882  0.84420483     1.73250
Fe1275     Fe  0.47279913  0.95500569  0.84677083     1.54410
O1276       O  0.00104044  0.94586856  0.83198202    -0.78570
O1277       O  0.45383471  0.50697270  0.86378710    -0.76870
O1278       O  0.04578992  0.49834731  0.82414937    -0.81070
O1279       O  0.04774142  0.98978233  0.85910453    -0.75930
O1280       O  0.44642312  0.95202819  0.82767360    -0.77700
O1281       O  0.01634345  0.56472645  0.85820053    -0.80450
C1282       C  0.02741852  0.96651919  0.86742576     1.00320
C1283       C  0.02502561  0.96368884  0.82345916     1.07760
O1284       O  0.00166280  0.50349373  0.84413683    -1.09430
O1285       O  0.50411003  0.55078574  0.82453584    -0.71860
O1286       O  0.05318736  0.56011053  0.82733013    -0.75350
O1287       O  0.99738851  0.95362780  0.86585687    -0.76040
C1288       C  0.03337234  0.56554081  0.82044069     0.98780
O1289       O  0.05513202  0.55380449  0.86156497    -0.74000
O1290       O  0.44228036  0.99543020  0.82967241    -0.79190
C1291       C  0.43647414  0.97792016  0.86753509     1.01840
C1292       C  0.43475551  0.96872825  0.82343203     1.07760
O1293       O  0.43970080  0.95610138  0.86144450    -0.74830
C1294       C  0.04211258  0.56976516  0.86468020     1.06060
Fe1295     Fe  0.28387201  0.64475211  0.49307028     1.65780
Fe1296     Fe  0.35370368  0.64539587  0.49296446     1.73250
Fe1297     Fe  0.35518528  0.71575535  0.49213413     1.54420
O1298       O  0.33025288  0.71703742  0.47320429    -0.78570
O1299       O  0.39033112  0.67840933  0.50747851    -0.76870
O1300       O  0.28048831  0.67654143  0.47801901    -0.81070
O1301       O  0.28361002  0.66966410  0.51200370    -0.75930
O1302       O  0.38978891  0.71836927  0.47702344    -0.77700
O1303       O  0.33032559  0.62060528  0.51244728    -0.80450
C1304       C  0.29944993  0.69941195  0.51493284     1.00320
C1305       C  0.30030235  0.70194720  0.47073123     1.07760
O1306       O  0.33091834  0.66866257  0.49264554    -1.09430
O1307       O  0.32016658  0.60876834  0.47868911    -0.71860
O1308       O  0.28026339  0.61755457  0.47420194    -0.75350
O1309       O  0.32424703  0.71954782  0.50740031    -0.76040
C1310       C  0.29463682  0.60266422  0.47164354     0.99220
O1311       O  0.28046626  0.60979615  0.50839762    -0.74000
O1312       O  0.37922046  0.66840258  0.47353718    -0.79190
C1313       C  0.39594967  0.70376153  0.51443473     1.01840
C1314       C  0.39453313  0.69801337  0.47029422     1.07760
O1315       O  0.38199499  0.71875950  0.51108756    -0.74830
C1316       C  0.30082033  0.60575179  0.51570427     1.06060
C1317       C  0.21308333  0.69601009  0.56836952     0.06240
C1318       C  0.20587698  0.72009733  0.56561670    -0.09910
C1319       C  0.22227204  0.74334005  0.55405371     0.03740
C1320       C  0.24568814  0.74256231  0.54516613    -0.08440
C1321       C  0.25246720  0.71840137  0.54749926     0.06230
C1322       C  0.23618883  0.69511487  0.55896287    -0.07860
H1323       H  0.18739914  0.72055844  0.57231721     0.11820
H1324       H  0.25757984  0.75990907  0.53591250     0.09350
H1325       H  0.24084143  0.67577053  0.56006462     0.09200
C1326       C  0.19376271  0.63330936  0.60096586     0.06240
C1327       C  0.16027249  0.61401813  0.60330320    -0.09910
C1328       C  0.14826748  0.59246373  0.61590180     0.03740
C1329       C  0.16954885  0.59052495  0.62618601    -0.08440
C1330       C  0.20262199  0.60964086  0.62394411     0.06230
C1331       C  0.21457971  0.63057840  0.61130565    -0.07860
H1332       H  0.14371330  0.61551553  0.59543285     0.11820
H1333       H  0.16037429  0.57477017  0.63619973     0.09350
H1334       H  0.24035576  0.64563741  0.60980753     0.09200
C1335       C  0.02074677  0.77815023  0.55514639     0.06240
C1336       C  0.49524589  0.75815644  0.54549435    -0.09910
C1337       C  0.46399071  0.75137370  0.54741689     0.03740
C1338       C  0.45710038  0.76655156  0.55915790    -0.08440
C1339       C  0.48150538  0.78865384  0.56922036     0.06230
C1340       C  0.01308982  0.78975238  0.56832533    -0.07860
H1341       H  0.50059153  0.74694828  0.53609152     0.11820
H1342       H  0.43287439  0.76181338  0.56005689     0.09350
H1343       H  0.03187986  0.80547572  0.57638549     0.09200
C1344       C  0.43633420  0.80375007  0.60175533     0.06240
C1345       C  0.44813757  0.83692478  0.60325642    -0.09910
C1346       C  0.43725002  0.84796263  0.61543679     0.03740
C1347       C  0.41523529  0.82611313  0.62619444    -0.08440
C1348       C  0.40371754  0.79335391  0.62481546     0.06230
C1349       C  0.41390845  0.78223367  0.61254335    -0.07860
H1350       H  0.46524806  0.85391396  0.59499726     0.11820
H1351       H  0.40765973  0.83471959  0.63587723     0.09350
H1352       H  0.40493967  0.75673266  0.61161490     0.09200
C1353       C  0.26293739  0.98536661  0.55344049     0.06240
C1354       C  0.26152861  0.50637599  0.54508281    -0.09910
C1355       C  0.28454317  0.53857827  0.54774793     0.03740
C1356       C  0.30798826  0.54692925  0.55923216    -0.08440
C1357       C  0.30830582  0.52300738  0.56836940     0.06230
C1358       C  0.28687148  0.99357462  0.56471928    -0.07860
H1359       H  0.24403045  0.49996468  0.53583021     0.11820
H1360       H  0.32646268  0.57199435  0.56059132     0.09350
H1361       H  0.28759773  0.97474703  0.57109183     0.09200
C1362       C  0.40978552  0.56573876  0.61695024     0.06240
C1363       C  0.38922143  0.55610213  0.60396212    -0.09910
C1364       C  0.36910952  0.56860349  0.60166234     0.03740
C1365       C  0.37010412  0.59067567  0.61241037    -0.08440
C1366       C  0.39007846  0.59967981  0.62544932     0.06230
C1367       C  0.41000239  0.58737054  0.62766851    -0.07860
H1368       H  0.38901321  0.53916664  0.59579712     0.11820
H1369       H  0.35436334  0.60002805  0.61092578     0.09350
H1370       H  0.42495899  0.59385221  0.63798960     0.09200
Fe1371     Fe  0.37649312  0.69360449  0.68255745     1.65780
Fe1372     Fe  0.30214182  0.68373470  0.68095537     1.73250
Fe1373     Fe  0.31011037  0.61841862  0.68096310     1.54410
O1374       O  0.33727487  0.62159794  0.66228729    -0.78570
O1375       O  0.26777514  0.64834521  0.69544532    -0.76870
O1376       O  0.38486500  0.66541634  0.66744888    -0.81070
O1377       O  0.38065051  0.67028788  0.70152823    -0.75930
O1378       O  0.27389213  0.61058582  0.66533019    -0.77700
O1379       O  0.32359001  0.71200000  0.70014114    -0.80450
C1380       C  0.36851250  0.64040890  0.70354644     1.00320
C1381       C  0.36694625  0.63997110  0.65972702     1.07760
O1382       O  0.32956400  0.66526986  0.68163354    -1.09430
O1383       O  0.33242810  0.72105928  0.66602454    -0.71860
O1384       O  0.37687529  0.71908985  0.66356522    -0.75350
O1385       O  0.34390272  0.61917903  0.69617338    -0.76040
C1386       C  0.35905808  0.72962420  0.65956030     0.99220
O1387       O  0.37483791  0.72635653  0.69745355    -0.74000
O1388       O  0.27819613  0.65793602  0.66164472    -0.79190
C1389       C  0.26351616  0.62305403  0.70208447     1.01840
C1390       C  0.26659833  0.62875925  0.65818525     1.07760
O1391       O  0.28075824  0.61115369  0.69949704    -0.74830
C1392       C  0.35304517  0.72963491  0.70356359     1.06060
C1393       C  0.38725525  0.61863202  0.63735405    -0.10170
C1394       C  0.38049730  0.63078628  0.64759781    -0.11730
C1395       C  0.33273900  0.53137492  0.58083941    -0.13330
C1396       C  0.34669032  0.55977382  0.58831531    -0.28500
H1397       H  0.33758321  0.51303734  0.58463523     0.15700
H1398       H  0.33927255  0.57666903  0.58546706     0.16270
C1399       C  0.37020310  0.75249551  0.64712114    -0.10170
C1400       C  0.38370833  0.77137014  0.63673149    -0.11730
C1401       C  0.47417604  0.80478312  0.58179286    -0.13330
C1402       C  0.44540624  0.78995112  0.58887367    -0.28500
H1403       H  0.49308720  0.82826177  0.58579584     0.15700
H1404       H  0.42796438  0.76518823  0.58583588     0.16270
C1405       C  0.22451066  0.61066029  0.63551870    -0.10170
C1406       C  0.24365825  0.61614794  0.64574308    -0.11730
C1407       C  0.19559727  0.67150690  0.58071698    -0.13330
C1408       C  0.20863369  0.65634766  0.58790483    -0.28500
H1409       H  0.17264614  0.66745149  0.58459694     0.15700
H1410       H  0.23292429  0.66299576  0.58495465     0.16270
C1411       C  0.27348764  0.71548144  0.53694073    -0.10170
C1412       C  0.28775253  0.71037270  0.52714281    -0.11730
C1413       C  0.29042505  0.58255175  0.52792700    -0.10170
C1414       C  0.28615369  0.56274330  0.53753890    -0.11730
C1415       C  0.43957389  0.73107704  0.53641090    -0.10170
C1416       C  0.41957735  0.71677475  0.52653238    -0.11730
C1417       C  0.23619676  0.60563171  0.71202293    -0.10170
C1418       C  0.20997913  0.58933090  0.71772691    -0.11730
C1419       C  0.03376657  0.94948172  0.81151174    -0.10170
C1420       C  0.04550655  0.94210421  0.80136942    -0.11730
C1421       C  0.10329088  0.98007351  0.75223419    -0.13330
C1422       C  0.13220584  0.99570734  0.74532385    -0.28500
H1423       H  0.08545934  0.98595095  0.74892830     0.15700
H1424       H  0.15113001  0.99216642  0.74960276     0.16270
C1425       C  0.37139144  0.78254910  0.71930427    -0.10170
C1426       C  0.36239869  0.75647521  0.71372921    -0.11730
C1427       C  0.39194660  0.94124104  0.80108338    -0.10170
C1428       C  0.41162138  0.95601004  0.81106057    -0.11730
C1429       C  0.35462312  0.86357016  0.75683971    -0.13330
C1430       C  0.38307309  0.87678695  0.74953505    -0.28500
H1431       H  0.33477937  0.84050929  0.75292916     0.15700
H1432       H  0.40169859  0.90121032  0.75244566     0.16270
C1433       C  0.08106096  0.54761623  0.69122636    -0.10170
C1434       C  0.10016416  0.55255228  0.70136575    -0.11730
C1435       C  0.45209579  0.91064792  0.68945718    -0.10170
C1436       C  0.43872697  0.89207803  0.69996488    -0.11730
C1437       C  0.44427089  0.54144718  0.62615716    -0.10170
C1438       C  0.42909781  0.55199784  0.62033286    -0.11730
C1439       C  0.08816155  0.55761923  0.62506478    -0.10170
C1440       C  0.11440314  0.57342096  0.61927995    -0.11730
C1441       C  0.45873369  0.90792283  0.62331197    -0.10170
C1442       C  0.44967247  0.88169108  0.61794172    -0.11730
C1443       C  0.04384435  0.58806662  0.80790806    -0.10170
C1444       C  0.04793355  0.60762771  0.79818485    -0.11730
C1445       C  0.38508484  0.63004917  0.71356479    -0.10170
C1446       C  0.40109204  0.62019807  0.71918449    -0.11730
C1447       C  0.44574818  0.53757228  0.69179221    -0.10170
C1448       C  0.43964383  0.55074920  0.70179581    -0.11730
C1449       C  0.48415118  0.61081733  0.75011262    -0.13330
C1450       C  0.49957226  0.63937219  0.75747272    -0.28500
H1451       H  0.49087222  0.59330148  0.75270545     0.15700
H1452       H  0.99739318  0.66022574  0.75148272     0.16270
C1453       C  0.25410556  0.87588295  0.79319368    -0.10170
C1454       C  0.27884326  0.88268047  0.78686999    -0.11730
C1455       C  0.12345916  0.88634564  0.79316265    -0.10170
C1456       C  0.11347167  0.90109995  0.78635115    -0.11730
C1457       C  0.10983924  0.74580708  0.79482207    -0.10170
C1458       C  0.09315674  0.72106078  0.78784904    -0.11730
C1459       C  0.03878321  0.95217166  0.87814978    -0.10170
C1460       C  0.04775652  0.93629680  0.88460864    -0.11730
C1461       C  0.12430848  0.88356166  0.86066131    -0.10170
C1462       C  0.11041962  0.88870495  0.87066863    -0.11730
C1463       C  0.04886647  0.82957272  0.92255809    -0.13330
C1464       C  0.03516186  0.84424719  0.91557835    -0.28500
H1465       H  0.07294334  0.83615871  0.91920591     0.15700
H1466       H  0.01246316  0.84018083  0.91987540     0.16270
C1467       C  0.38580448  0.96195525  0.88431989    -0.10170
C1468       C  0.41069693  0.96895026  0.87815024    -0.11730
C1469       C  0.27277832  0.90075514  0.86990609    -0.10170
C1470       C  0.25289276  0.88548432  0.86009516    -0.11730
C1471       C  0.27998881  0.96667202  0.92045951    -0.13330
C1472       C  0.30865460  0.97997424  0.91340745    -0.28500
H1473       H  0.26126137  0.94245704  0.91730838     0.15700
H1474       H  0.32845597  0.00275953  0.91762998     0.16270
C1475       C  0.07590239  0.62090627  0.88218224    -0.10170
C1476       C  0.05875148  0.59613620  0.87530485    -0.11730
C1477       C  0.12025047  0.73440144  0.87223680    -0.10170
C1478       C  0.12358279  0.75372150  0.86250564    -0.11730
C1479       C  0.16956203  0.70162008  0.91396896    -0.13330
C1480       C  0.18401357  0.72976890  0.92171692    -0.28500
H1481       H  0.17452407  0.68313717  0.91733522     0.15700
H1482       H  0.17659405  0.74680075  0.91923871     0.16270
C1483       C  0.21637308  0.92893125  0.98155195    -0.10170
C1484       C  0.22841714  0.94809641  0.97117395    -0.11730
C1485       C  0.22125164  0.80233074  0.98077286    -0.10170
C1486       C  0.22688058  0.78946268  0.97042658    -0.11730
C1487       C  0.06860039  0.78853517  0.97068821    -0.10170
C1488       C  0.08830077  0.79450174  0.98066506    -0.11730
C1489       C  0.39123102  0.61985178  0.13771592    -0.10170
C1490       C  0.37979215  0.62710992  0.14806636    -0.11730
C1491       C  0.05467751  0.76608484  0.05128014    -0.10170
C1492       C  0.08105593  0.78338526  0.04596017    -0.11730
C1493       C  0.47180342  0.67134363  0.07999474    -0.13330
C1494       C  0.44312213  0.65551197  0.08707192    -0.28500
H1495       H  0.49087353  0.66783689  0.08408114     0.15700
H1496       H  0.42502209  0.66119706  0.08403526     0.16270
C1497       C  0.23502357  0.61504598  0.13736664    -0.10170
C1498       C  0.25415265  0.62830870  0.14774880    -0.11730
C1499       C  0.21322228  0.93207786  0.04799680    -0.10170
C1500       C  0.22227228  0.95784597  0.05387525    -0.11730
C1501       C  0.20280953  0.55644467  0.08698294    -0.13330
C1502       C  0.21928752  0.54127343  0.08745668    -0.28500
H1503       H  0.19451909  0.56017018  0.07589238     0.15700
H1504       H  0.22487683  0.53476588  0.09859168     0.16270
C1505       C  0.38295043  0.76024092  0.14566361    -0.10170
C1506       C  0.38702719  0.77986473  0.13592830    -0.11730
C1507       C  0.22840144  0.80360573  0.04764009    -0.10170
C1508       C  0.24346208  0.79307549  0.05361664    -0.11730
C1509       C  0.32374322  0.78129587  0.08544756    -0.13330
C1510       C  0.33899743  0.81005242  0.09259856    -0.28500
H1511       H  0.33018367  0.76370519  0.08840822     0.15700
H1512       H  0.33489389  0.82879008  0.08862194     0.16270
C1513       C  0.28168626  0.72388263  0.03609209    -0.10170
C1514       C  0.28773384  0.71165697  0.02560917    -0.11730
C1515       C  0.29040036  0.58820720  0.02627920    -0.10170
C1516       C  0.27696371  0.56990038  0.03689917    -0.11730
C1517       C  0.42156989  0.71787247  0.02802690    -0.10170
C1518       C  0.44123189  0.72160270  0.03771566    -0.11730
C1519       C  0.43060964  0.73142859  0.96168190    -0.10170
C1520       C  0.45655084  0.74766760  0.95565102    -0.11730
C1521       C  0.30041179  0.58462400  0.95839794    -0.10170
C1522       C  0.29159753  0.55908442  0.95228116    -0.11730
C1523       C  0.28538691  0.71438200  0.95903710    -0.10170
C1524       C  0.26906152  0.72350669  0.95301447    -0.11730
C1525       C  0.39780772  0.77031938  0.21197800    -0.10170
C1526       C  0.41372370  0.79644789  0.21797208    -0.11730
C1527       C  0.05643373  0.95224202  0.30305726    -0.10170
C1528       C  0.05109384  0.96622523  0.31297048    -0.11730
C1529       C  0.99567510  0.88999543  0.25142899    -0.13330
C1530       C  0.01115930  0.87676493  0.25803979    -0.28500
H1531       H  0.00181316  0.91386357  0.25501175     0.15700
H1532       H  0.00747928  0.85433813  0.25348458     0.16270
C1533       C  0.22632021  0.62729429  0.22142303    -0.10170
C1534       C  0.25173535  0.63662526  0.21517542    -0.11730
C1535       C  0.05124763  0.59187652  0.31426242    -0.10170
C1536       C  0.06533739  0.61106748  0.30403370    -0.11730
C1537       C  0.12518161  0.64039403  0.25427861    -0.13330
C1538       C  0.14370090  0.62749694  0.25506108    -0.28500
H1539       H  0.11845323  0.64539019  0.24305274     0.15700
H1540       H  0.15300890  0.62543329  0.26620923     0.16270
C1541       C  0.45927205  0.92778571  0.19347810    -0.10170
C1542       C  0.45306399  0.90789155  0.20335369    -0.11730
C1543       C  0.09517005  0.55854006  0.19401385    -0.10170
C1544       C  0.11452513  0.57119327  0.20433692    -0.11730
C1545       C  0.43296763  0.89308148  0.12258306    -0.10170
C1546       C  0.45001047  0.91938430  0.12813518    -0.11730
C1547       C  0.09776596  0.55354885  0.12712861    -0.10170
C1548       C  0.12301919  0.56193932  0.12086248    -0.11730
C1549       C  0.46797137  0.56315345  0.12620748    -0.10170
C1550       C  0.45721166  0.57791476  0.12009438    -0.11730
C1551       C  0.39347740  0.61125343  0.22052529    -0.10170
C1552       C  0.38352119  0.62681677  0.21451561    -0.11730
C1553       C  0.45958995  0.56947721  0.20296807    -0.10170
C1554       C  0.47182212  0.56295238  0.19269646    -0.11730
C1555       C  0.42076136  0.96543810  0.31097959    -0.10170
C1556       C  0.40138325  0.96155920  0.30115508    -0.11730
C1557       C  0.37183608  0.51212180  0.25884034    -0.13330
C1558       C  0.40028971  0.52672882  0.25148611    -0.28500
H1559       H  0.35351596  0.51715779  0.25525839     0.15700
H1560       H  0.41721981  0.51924720  0.25410005     0.16270
C1561       C  0.28823543  0.91556072  0.28920102    -0.10170
C1562       C  0.26301632  0.89804833  0.29555513    -0.11730
C1563       C  0.10521197  0.89097308  0.28783437    -0.10170
C1564       C  0.12139042  0.88170804  0.29372155    -0.11730
C1565       C  0.12266228  0.72296953  0.28664540    -0.10170
C1566       C  0.13195041  0.74898931  0.29225520    -0.11730
C1567       C  0.06821502  0.95371222  0.38545495    -0.10170
C1568       C  0.05336280  0.96435523  0.37935229    -0.11730
C1569       C  0.11031423  0.88703844  0.36887512    -0.10170
C1570       C  0.11834527  0.87532525  0.35899771    -0.11730
C1571       C  0.26555809  0.55092386  0.45428300    -0.10170
C1572       C  0.28009564  0.57616586  0.46106277    -0.11730
C1573       C  0.14799280  0.94308415  0.41837421    -0.13330
C1574       C  0.16429377  0.97221072  0.42511606    -0.28500
H1575       H  0.15373067  0.92507632  0.42151606     0.15700
H1576       H  0.16082364  0.99123086  0.42091165     0.16270
C1577       C  0.44512726  0.71641055  0.45306385    -0.10170
C1578       C  0.42033884  0.70897512  0.45948057    -0.11730
C1579       C  0.04684230  0.62012984  0.38676596    -0.10170
C1580       C  0.03884175  0.59439058  0.38115318    -0.11730
C1581       C  0.12307232  0.74992230  0.35801944    -0.10170
C1582       C  0.10833755  0.73040947  0.36796871    -0.11730
C1583       C  0.03199573  0.70519178  0.41040763    -0.13330
C1584       C  0.02714655  0.69708036  0.42542879    -0.28500
H1585       H  0.02791432  0.72388135  0.40625113     0.15700
H1586       H  0.03438536  0.68116164  0.43023909     0.16270
C1587       C  0.27948099  0.73172407  0.45329042    -0.10170
C1588       C  0.28830581  0.71592332  0.46003484    -0.11730
C1589       C  0.38698411  0.93623834  0.38468927    -0.10170
C1590       C  0.41216952  0.95270345  0.37805507    -0.11730
C1591       C  0.27285281  0.88424495  0.37239583    -0.10170
C1592       C  0.25322266  0.87925142  0.36250014    -0.11730
C1593       C  0.30614074  0.85048277  0.41969779    -0.13330
C1594       C  0.28833796  0.81823894  0.41867105    -0.28500
H1595       H  0.31404427  0.86190127  0.43098325     0.15700
H1596       H  0.28247708  0.80675184  0.40735465     0.16270
C1597       C  0.05980000  0.77713878  0.46720356    -0.10170
C1598       C  0.07944029  0.79160052  0.47719539    -0.11730
C1599       C  0.21477886  0.94102492  0.46665176    -0.10170
C1600       C  0.21060261  0.92130881  0.47628873    -0.11730
C1601       C  0.20761849  0.79068132  0.47603276    -0.10170
C1602       C  0.22133544  0.78501738  0.46613710    -0.11730
C1603       C  0.24092180  0.95245110  0.54916710    -0.10170
C1604       C  0.22376565  0.92704178  0.54284144    -0.11730
C1605       C  0.07814749  0.79651686  0.54449783    -0.10170
C1606       C  0.05337534  0.78844498  0.55115830    -0.11730
C1607       C  0.20557193  0.78296409  0.54318132    -0.10170
C1608       C  0.21307624  0.76597998  0.54976337    -0.11730
Fe1609     Fe  0.63969869  0.28623035  0.51084804     1.65780
Fe1610     Fe  0.64442452  0.35823840  0.51070515     1.73250
Fe1611     Fe  0.71261517  0.35551810  0.51027876     1.54420
O1612       O  0.71416301  0.32268563  0.52528271    -0.78570
O1613       O  0.66877917  0.38338254  0.49143827    -0.76870
O1614       O  0.66370489  0.28315663  0.52965625    -0.81070
O1615       O  0.66960725  0.28115529  0.49539441    -0.75930
O1616       O  0.71763385  0.38319720  0.52916448    -0.77700
O1617       O  0.60745996  0.32672777  0.49585042    -0.80450
C1618       C  0.69491493  0.30071084  0.48802277     1.00320
C1619       C  0.69351107  0.29738330  0.53236489     1.07760
O1620       O  0.66559778  0.33333827  0.51069906    -1.09430
O1621       O  0.61794430  0.33502321  0.52999795    -0.71860
O1622       O  0.60585526  0.28465767  0.52613439    -0.75350
O1623       O  0.71190105  0.33026257  0.49125079    -0.76040
C1624       C  0.60197599  0.30532750  0.53313108     0.99220
O1625       O  0.61369785  0.28509761  0.49198548    -0.74000
O1626       O  0.67879744  0.39378909  0.52520761    -0.79190
C1627       C  0.69816385  0.39688138  0.48803851     1.01840
C1628       C  0.70441646  0.39913062  0.53190376     1.07760
O1629       O  0.71768560  0.39123365  0.49506799    -0.74830
C1630       C  0.60100257  0.30129369  0.48868647     1.06060
C1631       C  0.85087134  0.41141768  0.38861352     0.06240
C1632       C  0.82804857  0.41126293  0.37863826    -0.09910
C1633       C  0.79534394  0.39178051  0.38179619     0.03740
C1634       C  0.78526181  0.37251900  0.39510362    -0.08440
C1635       C  0.80783539  0.37210160  0.40511811     0.06230
C1636       C  0.84082875  0.39157011  0.40183670    -0.07860
H1637       H  0.83574856  0.42586499  0.36820509     0.11820
H1638       H  0.75983312  0.35735641  0.39752258     0.09350
H1639       H  0.85840555  0.39147119  0.40954875     0.09200
C1640       C  0.77110295  0.25560979  0.44911932     0.06240
C1641       C  0.74829161  0.25708772  0.45819458    -0.09910
C1642       C  0.74020316  0.28011751  0.45513516     0.03740
C1643       C  0.75482188  0.30178087  0.44284542    -0.08440
C1644       C  0.77826509  0.30097131  0.43365291     0.06230
C1645       C  0.78598032  0.27736695  0.43682631    -0.07860
H1646       H  0.73767305  0.24103304  0.46802757     0.11820
H1647       H  0.74780154  0.31913900  0.44064627     0.09350
H1648       H  0.80414682  0.27651241  0.43003883     0.09200
C1649       C  0.56290018  0.15730494  0.38806600     0.06240
C1650       C  0.55130889  0.16762627  0.40029045    -0.09910
C1651       C  0.56205716  0.20059936  0.40180935     0.03740
C1652       C  0.58395300  0.22251846  0.39097641    -0.08440
C1653       C  0.59471528  0.21206737  0.37868185     0.06230
C1654       C  0.58438589  0.17960758  0.37729857    -0.07860
H1655       H  0.53456934  0.15033139  0.40856815     0.11820
H1656       H  0.59211751  0.24784241  0.39190654     0.09350
H1657       H  0.59248724  0.17155979  0.36759740     0.09200
C1658       C  0.97713655  0.22299175  0.44924787     0.06240
C1659       C  0.98388804  0.20668052  0.43788103    -0.09910
C1660       C  0.51643444  0.21565391  0.43421381     0.03740
C1661       C  0.54085339  0.23852765  0.44404716    -0.08440
C1662       C  0.53391345  0.25433231  0.45544426     0.06230
C1663       C  0.50261227  0.24736082  0.45730312    -0.07860
H1664       H  0.96457277  0.18830144  0.43085901     0.11820
H1665       H  0.56514573  0.24341813  0.44325632     0.09350
H1666       H  0.49725077  0.25900068  0.46649137     0.09200
C1667       C  0.73823673  0.01850756  0.45113861     0.06240
C1668       C  0.73931568  0.99428648  0.45930754    -0.09910
C1669       C  0.71626802  0.46479339  0.45622801     0.03740
C1670       C  0.69179523  0.45671976  0.44537423    -0.08440
C1671       C  0.69145760  0.48071031  0.43631889     0.06230
C1672       C  0.71355392  0.01062840  0.44034872    -0.07860
H1673       H  0.75787330  0.00051664  0.46798237     0.11820
H1674       H  0.67257738  0.43184007  0.44449049     0.09350
H1675       H  0.71276908  0.02962009  0.43416906     0.09200
C1676       C  0.58842017  0.44034623  0.38885734     0.06240
C1677       C  0.60849676  0.44893342  0.40199335    -0.09910
C1678       C  0.62811350  0.43583325  0.40411170     0.03740
C1679       C  0.62721104  0.41432379  0.39308728    -0.08440
C1680       C  0.60793308  0.40656570  0.37988133     0.06230
C1681       C  0.58838082  0.41933543  0.37780430    -0.07860
H1682       H  0.60880103  0.46555708  0.41039497     0.11820
H1683       H  0.64270588  0.40464639  0.39444242     0.09350
H1684       H  0.57394448  0.41377594  0.36734381     0.09200
Fe1685     Fe  0.69082595  0.38942772  0.32497337     1.65780
Fe1686     Fe  0.69612704  0.32253787  0.32299177     1.73250
Fe1687     Fe  0.62297643  0.31545359  0.32228266     1.54410
O1688       O  0.61505474  0.34349695  0.33747407    -0.78570
O1689       O  0.67365168  0.29596618  0.30349663    -0.76870
O1690       O  0.66291616  0.38595952  0.34339928    -0.81070
O1691       O  0.65871993  0.39078066  0.30937840    -0.75930
O1692       O  0.62191563  0.28900706  0.34100827    -0.77700
O1693       O  0.73108072  0.35799164  0.30872645    -0.80450
C1694       C  0.63407172  0.37040257  0.30170683     1.00320
C1695       C  0.63302695  0.36827768  0.34551868     1.07760
O1696       O  0.67007087  0.34253943  0.32329436    -1.09430
O1697       O  0.72093607  0.34644246  0.34253499    -0.71860
O1698       O  0.72506414  0.39414605  0.34110535    -0.75350
O1699       O  0.62044714  0.34029241  0.30358515    -0.76040
C1700       C  0.73194432  0.37478417  0.34731541     0.99220
O1701       O  0.72135879  0.39786968  0.30678125    -0.74000
O1702       O  0.66495180  0.28483664  0.33752704    -0.79190
C1703       C  0.64393958  0.27873642  0.30057249     1.01840
C1704       C  0.63889445  0.27712933  0.34438500     1.07760
O1705       O  0.62295818  0.28238400  0.30723158    -0.74830
C1706       C  0.73691730  0.38467246  0.30310369     1.06060
C1707       C  0.82352462  0.43643782  0.28302501     0.06240
C1708       C  0.83538136  0.45750731  0.27022219    -0.09910
C1709       C  0.86880210  0.47578787  0.26745838     0.03740
C1710       C  0.88964462  0.47263755  0.27756274    -0.08440
C1711       C  0.87784118  0.45232465  0.29039771     0.06230
C1712       C  0.84489427  0.43414497  0.29308031    -0.07860
H1713       H  0.81881870  0.45939259  0.26251715     0.11820
H1714       H  0.91538255  0.48699976  0.27575437     0.09350
H1715       H  0.83591920  0.41881915  0.30324911     0.09200
C1716       C  0.90751927  0.04900207  0.23827741     0.06240
C1717       C  0.92989562  0.05085317  0.22751109    -0.09910
C1718       C  0.93891750  0.07151836  0.21478640     0.03740
C1719       C  0.92641728  0.09130625  0.21290297    -0.08440
C1720       C  0.90442264  0.09021850  0.22358935     0.06230
C1721       C  0.89466765  0.06892511  0.23627725    -0.07860
H1722       H  0.93944783  0.03522232  0.22870733     0.11820
H1723       H  0.93293973  0.10676461  0.20279013     0.09350
H1724       H  0.87738134  0.06797941  0.24441271     0.09200
Fe1725     Fe  0.96007825  0.49011311  0.16063944     1.65780
Fe1726     Fe  0.53327831  0.06156565  0.15728115     1.73250
Fe1727     Fe  0.52987459  0.48901530  0.15925682     1.54420
O1728       O  0.00577377  0.46407527  0.17928841    -0.78570
O1729       O  0.56653810  0.06147558  0.14230999    -0.76870
O1730       O  0.95630984  0.45499143  0.17603170    -0.81070
O1731       O  0.95500286  0.46210762  0.14186483    -0.75930
O1732       O  0.56324596  0.01995761  0.17401626    -0.77700
O1733       O  0.00995614  0.06553907  0.13812851    -0.80450
C1734       C  0.96847117  0.44638360  0.13918802     1.00320
C1735       C  0.97647077  0.45001024  0.18292381     1.07760
O1736       O  0.50653783  0.01438010  0.15810160    -1.09430
O1737       O  0.50415251  0.06824914  0.17241895    -0.71860
O1738       O  0.96179914  0.02129724  0.17690515    -0.75350
O1739       O  0.49482389  0.45267715  0.14523796    -0.76040
C1740       C  0.97961574  0.05094796  0.17980376     0.99220
O1741       O  0.95944853  0.02665904  0.14287013    -0.74000
O1742       O  0.55946778  0.06342688  0.17631477    -0.79190
C1743       C  0.57068160  0.04023835  0.13617679     1.01840
C1744       C  0.57080615  0.04639547  0.18045574     1.07760
O1745       O  0.55458245  0.01080944  0.13987110    -0.74830
C1746       C  0.98008185  0.05154545  0.13556877     1.06060
C1747       C  0.61501741  0.15153027  0.26699054     0.06240
C1748       C  0.62284372  0.18344552  0.26872327    -0.09910
C1749       C  0.61271666  0.19247547  0.28188538     0.03740
C1750       C  0.59378828  0.16943323  0.29303312    -0.08440
C1751       C  0.58538399  0.13748792  0.29123175     0.06230
C1752       C  0.59634834  0.12859952  0.27832403    -0.07860
H1753       H  0.63756395  0.20131292  0.26011708     0.11820
H1754       H  0.58619305  0.17651311  0.30328583     0.09350
H1755       H  0.59007153  0.10387658  0.27698937     0.09200
C1756       C  0.65116854  0.11645339  0.23998769     0.06240
C1757       C  0.68295296  0.12415230  0.23782582    -0.09910
C1758       C  0.69123931  0.11433162  0.22427067     0.03740
C1759       C  0.66767443  0.09595588  0.21318443    -0.08440
C1760       C  0.63599760  0.08781259  0.21539050     0.06230
C1761       C  0.62775931  0.09823885  0.22869048    -0.07860
H1762       H  0.70127886  0.13870306  0.24633170     0.11820
H1763       H  0.67419208  0.08878857  0.20259860     0.09350
H1764       H  0.60318672  0.09216796  0.23026490     0.09200
C1765       C  0.54532682  0.41189408  0.26763433     0.06240
C1766       C  0.56472340  0.39849578  0.26965392    -0.09910
C1767       C  0.58543452  0.40737382  0.28255785     0.03740
C1768       C  0.58647555  0.42910588  0.29347432    -0.08440
C1769       C  0.56725165  0.44227654  0.29152578     0.06230
C1770       C  0.54717633  0.43407050  0.27856362    -0.07860
H1771       H  0.56383953  0.38145063  0.26133992     0.11820
H1772       H  0.60150060  0.43498092  0.30374151     0.09350
H1773       H  0.53194738  0.44406785  0.27730170     0.09200
C1774       C  0.98399357  0.36583528  0.23497114     0.06240
C1775       C  0.98403439  0.39000639  0.22586460    -0.09910
C1776       C  0.95999311  0.38212196  0.21474048     0.03740
C1777       C  0.93600298  0.35006945  0.21240822    -0.08440
C1778       C  0.93604608  0.32573083  0.22102303     0.06230
C1779       C  0.95999715  0.33353650  0.23225732    -0.07860
H1780       H  0.00315551  0.41487957  0.22697547     0.11820
H1781       H  0.91800635  0.34394831  0.20344237     0.09350
H1782       H  0.96005242  0.31453029  0.23879934     0.09200
Fe1783     Fe  0.98115229  0.02838077  0.34633719     1.65780
Fe1784     Fe  0.55269041  0.03195602  0.34820901     1.73250
Fe1785     Fe  0.98276926  0.45699128  0.34728372     1.54420
O1786       O  0.95313201  0.45061630  0.36550427    -0.78570
O1787       O  0.55791817  0.00138708  0.33310492    -0.76870
O1788       O  0.94441644  0.99370747  0.36030012    -0.81070
O1789       O  0.95750155  0.00506489  0.32655374    -0.75930
O1790       O  0.51718825  0.45830857  0.36095530    -0.77700
O1791       O  0.55553490  0.05835175  0.32914895    -0.80450
C1792       C  0.94204309  0.47035976  0.32426525     1.00320
C1793       C  0.93719496  0.46391175  0.36816487     1.07760
O1794       O  0.50563779  0.00680804  0.34724866    -1.09430
O1795       O  0.55408311  0.06662187  0.36308166    -0.71860
O1796       O  0.50372334  0.05476986  0.36631756    -0.75350
O1797       O  0.94793649  0.45124615  0.33143121    -0.76040
C1798       C  0.53334151  0.07118445  0.36951699     0.99220
O1799       O  0.51442573  0.06567580  0.33230493    -0.74000
O1800       O  0.55329149  0.50810019  0.36866144    -0.79190
C1801       C  0.54399678  0.48198948  0.32586902     1.01840
C1802       C  0.54042173  0.47793212  0.36958470     1.07760
O1803       O  0.51378641  0.46525910  0.32710249    -0.74830
C1804       C  0.54009863  0.07172915  0.32553605     1.06060
Fe1805     Fe  0.78917226  0.14861338  0.99005248     1.65780
Fe1806     Fe  0.86171725  0.15465048  0.99189391     1.73250
Fe1807     Fe  0.85759936  0.22208630  0.99206020     1.54420
O1808       O  0.82474791  0.22324982  0.97668611    -0.78570
O1809       O  0.88562772  0.17900190  0.01146463    -0.76870
O1810       O  0.78706961  0.17265759  0.97093968    -0.81070
O1811       O  0.78224034  0.17807200  0.00500181    -0.75930
O1812       O  0.88669414  0.22828961  0.97358797    -0.77700
O1813       O  0.82957892  0.11750686  0.00654931    -0.80450
C1814       C  0.80098191  0.20273195  0.01305108     1.00320
C1815       C  0.80015859  0.20265764  0.96901751     1.07760
O1816       O  0.83620674  0.17512606  0.99119429    -1.09430
O1817       O  0.84005006  0.12777265  0.97240114    -0.71860
O1818       O  0.78927427  0.11482964  0.97526128    -0.75350
O1819       O  0.83086219  0.21982336  0.01071757    -0.76040
C1820       C  0.81055021  0.11098581  0.96895776     0.99220
O1821       O  0.78706462  0.12275455  0.00918465    -0.74000
O1822       O  0.89771610  0.18973007  0.97776152    -0.79190
C1823       C  0.89883103  0.20833762  0.01497110     1.01840
C1824       C  0.90318634  0.21551213  0.97114013     1.07760
O1825       O  0.89309175  0.22770944  0.00782005    -0.74830
C1826       C  0.80351640  0.11068065  0.01316744     1.06060
C1827       C  0.76302745  0.27973198  0.05662358     0.06240
C1828       C  0.76177034  0.25770741  0.04583495    -0.09910
C1829       C  0.78085778  0.24441056  0.04784763     0.03740
C1830       C  0.80105312  0.25278434  0.06078740    -0.08440
C1831       C  0.80308655  0.27520733  0.07164100     0.06230
C1832       C  0.78380779  0.28874333  0.06951933    -0.07860
H1833       H  0.74661791  0.25164614  0.03560320     0.11820
H1834       H  0.81613760  0.24264015  0.06211497     0.09350
H1835       H  0.78478514  0.30594594  0.07775935     0.09200
C1836       C  0.91194005  0.35968796  0.11935154     0.06240
C1837       C  0.88860663  0.35182653  0.10777082    -0.09910
C1838       C  0.86511477  0.31948504  0.10475530     0.03740
C1839       C  0.86493805  0.29526913  0.11387273    -0.08440
C1840       C  0.88827563  0.30317095  0.12539380     0.06230
C1841       C  0.91178606  0.33531091  0.12804647    -0.07860
H1842       H  0.88860493  0.37083141  0.10120107     0.11820
H1843       H  0.84613741  0.27033473  0.11248252     0.09350
H1844       H  0.92924266  0.34143864  0.13728733     0.09200
C1845       C  0.73008358  0.03122832  0.07230123     0.06240
C1846       C  0.74861650  0.05444581  0.06102672    -0.09910
C1847       C  0.75968953  0.04594897  0.04800795     0.03740
C1848       C  0.75157616  0.01415470  0.04602906    -0.08440
C1849       C  0.73200784  0.49076900  0.05719470     0.06230
C1850       C  0.72120944  0.49935682  0.07030936    -0.07860
H1851       H  0.75470647  0.07908210  0.06248870     0.11820
H1852       H  0.75926577  0.00742044  0.03569001     0.09350
H1853       H  0.70600677  0.48112762  0.07867002     0.09200
C1854       C  0.65453641  0.06916171  0.11545056     0.06240
C1855       C  0.66266022  0.05891929  0.10197069    -0.09910
C1856       C  0.69438742  0.06633325  0.09981154     0.03740
C1857       C  0.71788605  0.08465150  0.11107580    -0.08440
C1858       C  0.70980426  0.09556959  0.12427784     0.06230
C1859       C  0.67820971  0.08768866  0.12645007    -0.07860
H1860       H  0.64427590  0.04440451  0.09348339     0.11820
H1861       H  0.74241652  0.09059674  0.10950181     0.09350
H1862       H  0.67184842  0.09529950  0.13694187     0.09200
C1863       C  0.52184014  0.24641498  0.05443273     0.06240
C1864       C  0.49832914  0.24755300  0.04555841    -0.09910
C1865       C  0.96550904  0.22470811  0.04748455     0.03740
C1866       C  0.95641447  0.20026282  0.05850890    -0.08440
C1867       C  0.97977284  0.19908942  0.06776115     0.06230
C1868       C  0.51291570  0.22228720  0.06558897    -0.07860
H1869       H  0.50535124  0.26565263  0.03659056     0.11820
H1870       H  0.93130109  0.18172632  0.05938274     0.09350
H1871       H  0.53132572  0.22134756  0.07226260     0.09200
C1872       C  0.94186579  0.09776287  0.11532487     0.06240
C1873       C  0.94928267  0.11718792  0.10206483    -0.09910
C1874       C  0.93492545  0.13567184  0.09983091     0.03740
C1875       C  0.91316534  0.13410153  0.11087367    -0.08440
C1876       C  0.90643532  0.11528220  0.12417994     0.06230
C1877       C  0.92056702  0.09699725  0.12635163    -0.07860
H1878       H  0.96608492  0.11792155  0.09368090     0.11820
H1879       H  0.90255362  0.14875832  0.10946810     0.09350
H1880       H  0.91583967  0.08300828  0.13689056     0.09200
Fe1881     Fe  0.88600887  0.19460854  0.17990041     1.65780
Fe1882     Fe  0.81771878  0.19712160  0.18067113     1.73250
Fe1883     Fe  0.81348100  0.12530113  0.18226998     1.54420
O1884       O  0.84299924  0.11876989  0.16739184    -0.78570
O1885       O  0.79135774  0.17477144  0.20014145    -0.76870
O1886       O  0.88379379  0.16757669  0.16132024    -0.81070
O1887       O  0.88836487  0.16284688  0.19542961    -0.75930
O1888       O  0.78708082  0.12247695  0.16319080    -0.77700
O1889       O  0.85231888  0.23331922  0.19492731    -0.80450
C1890       C  0.86832164  0.13849145  0.20331703     1.00320
C1891       C  0.86714926  0.13755870  0.15918903     1.07760
O1892       O  0.83909328  0.17243240  0.18105033    -1.09430
O1893       O  0.84151474  0.22185813  0.16118397    -0.71860
O1894       O  0.89035431  0.22928760  0.16408261    -0.75350
O1895       O  0.83826087  0.12440935  0.20135351    -0.76040
C1896       C  0.87062464  0.23504381  0.15733658     0.99220
O1897       O  0.89222119  0.22395407  0.19825302    -0.74000
O1898       O  0.78098292  0.16454413  0.16594060    -0.79190
C1899       C  0.77536566  0.14522873  0.20355277     1.01840
C1900       C  0.77461480  0.13861694  0.15925708     1.07760
O1901       O  0.77959364  0.12438801  0.19707731    -0.74830
C1902       C  0.87865667  0.23950721  0.20117638     1.06060
Fe1903     Fe  0.65439877  0.29446215  0.01506756     1.65780
Fe1904     Fe  0.72275743  0.36837461  0.01544845     1.73250
Fe1905     Fe  0.64977379  0.36163987  0.01478333     1.54420
O1906       O  0.62506944  0.33628970  0.99549352    -0.78570
O1907       O  0.72322135  0.40199953  0.03051365    -0.76870
O1908       O  0.61839058  0.28796816  0.99964416    -0.81070
O1909       O  0.62615615  0.28927562  0.03373981    -0.75930
O1910       O  0.68060683  0.39866657  0.00004131    -0.77700
O1911       O  0.72698611  0.34496313  0.03433234    -0.80450
C1912       C  0.60938660  0.30181841  0.03592558     1.00320
C1913       C  0.61207844  0.30674703  0.99236018     1.07760
O1914       O  0.67567029  0.34148661  0.01521329    -1.09430
O1915       O  0.72869776  0.33884090  0.00013145    -0.71860
O1916       O  0.68019547  0.29528280  0.99627151    -0.75350
O1917       O  0.61450010  0.32716085  0.02908817    -0.76040
C1918       C  0.70961094  0.31294730  0.99297360     0.99220
O1919       O  0.68766360  0.29419880  0.03023772    -0.74000
O1920       O  0.72322399  0.39402275  0.99649953    -0.79190
C1921       C  0.70222034  0.40584968  0.03712805     1.01840
C1922       C  0.70636128  0.40596298  0.99308294     1.07760
O1923       O  0.67251976  0.38907217  0.03400935    -0.74830
C1924       C  0.71323119  0.31515761  0.03708990     1.06060
C1925       C  0.64392735  0.19308967  0.90163017     0.06240
C1926       C  0.64344146  0.21746077  0.89291798    -0.09910
C1927       C  0.61982228  0.20967512  0.88156007     0.03740
C1928       C  0.59674989  0.17761161  0.87862485    -0.08440
C1929       C  0.59731349  0.15309007  0.88676963     0.06230
C1930       C  0.62087142  0.16071966  0.89824186    -0.07860
H1931       H  0.66195777  0.24244947  0.89447051     0.11820
H1932       H  0.57914489  0.17167077  0.86947164     0.09350
H1933       H  0.62139671  0.14158457  0.90441222     0.09200
C1934       C  0.70600971  0.23774306  0.93486133     0.06240
C1935       C  0.72642123  0.22542219  0.93687754    -0.09910
C1936       C  0.74797813  0.23573608  0.94955863     0.03740
C1937       C  0.74873932  0.25770988  0.96022765    -0.08440
C1938       C  0.72849378  0.26970022  0.95834370     0.06230
C1939       C  0.70758620  0.26007804  0.94564516    -0.07860
H1940       H  0.72578629  0.20828523  0.92870522     0.11820
H1941       H  0.76452275  0.26482549  0.97026798     0.09350
H1942       H  0.69174185  0.26936440  0.94440744     0.09200
C1943       C  0.81778657  0.46257565  0.90075076     0.06240
C1944       C  0.84926276  0.46917791  0.89859558    -0.09910
C1945       C  0.85549971  0.45233067  0.88736378     0.03740
C1946       C  0.83050401  0.42906675  0.87819411    -0.08440
C1947       C  0.79939631  0.42284828  0.87992900     0.06230
C1948       C  0.79301160  0.43960453  0.89107187    -0.07860
H1949       H  0.86882167  0.48744361  0.90555500     0.11820
H1950       H  0.83552922  0.41674862  0.86922356     0.09350
H1951       H  0.76892541  0.43527113  0.89179677     0.09200
C1952       C  0.77597423  0.48081552  0.93368226     0.06240
C1953       C  0.78677562  0.01417746  0.93620846    -0.09910
C1954       C  0.77866906  0.02517846  0.94948980     0.03740
C1955       C  0.75864505  0.00322519  0.96076563    -0.08440
C1956       C  0.74774740  0.47016842  0.95817866     0.06230
C1957       C  0.75527911  0.45916432  0.94492002    -0.07860
H1958       H  0.80251432  0.03118660  0.92755513     0.11820
H1959       H  0.75324298  0.01173642  0.97124709     0.09350
H1960       H  0.74573534  0.43362031  0.94357005     0.09200
C1961       C  0.55951356  0.41487739  0.88830100     0.06240
C1962       C  0.58262186  0.41446570  0.87897451    -0.09910
C1963       C  0.59027309  0.39084202  0.88109859     0.03740
C1964       C  0.57507871  0.36771492  0.89277671    -0.08440
C1965       C  0.55221982  0.36825381  0.90254620     0.06230
C1966       C  0.54427759  0.39183922  0.90003149    -0.07860
H1967       H  0.59358517  0.43166072  0.86958330     0.11820
H1968       H  0.58035090  0.34878474  0.89377014     0.09350
H1969       H  0.52602083  0.39203265  0.90704931     0.09200
C1970       C  0.53522968  0.30712977  0.93556408     0.06240
C1971       C  0.00177622  0.28983491  0.93912583    -0.09910
C1972       C  0.99078146  0.26892228  0.95198705     0.03740
C1973       C  0.51306363  0.26693121  0.96176479    -0.08440
C1974       C  0.54593299  0.28602775  0.95893631     0.06230
C1975       C  0.55687474  0.30565748  0.94582080    -0.07860
H1976       H  0.98459183  0.29028611  0.93128216     0.11820
H1977       H  0.50471301  0.25212091  0.97211832     0.09350
H1978       H  0.58251118  0.32070408  0.94386604     0.09200
Fe1979     Fe  0.61887799  0.31573611  0.82665340     1.65780
Fe1980     Fe  0.68776626  0.31448614  0.82607805     1.73250
Fe1981     Fe  0.69093418  0.38572830  0.82489023     1.54420
O1982       O  0.66609062  0.38693816  0.80590210    -0.78570
O1983       O  0.72493425  0.34748455  0.84052415    -0.76870
O1984       O  0.61609432  0.34757679  0.81131102    -0.81070
O1985       O  0.61992322  0.34166485  0.84541154    -0.75930
O1986       O  0.72513634  0.38715493  0.80981928    -0.77700
O1987       O  0.66455862  0.29027656  0.84570633    -0.80450
C1988       C  0.63613415  0.37152125  0.84798668     1.00320
C1989       C  0.63608456  0.37238928  0.80366745     1.07760
O1990       O  0.66585392  0.33863548  0.82578072    -1.09430
O1991       O  0.65327429  0.27786218  0.81192196    -0.71860
O1992       O  0.61373502  0.28747112  0.80803030    -0.75350
O1993       O  0.66071574  0.39102111  0.84012507    -0.76040
C1994       C  0.62743004  0.27202166  0.80524250     0.99220
O1995       O  0.61508977  0.28099891  0.84231875    -0.74000
O1996       O  0.71333551  0.33675900  0.80651050    -0.79190
C1997       C  0.73104965  0.37318790  0.84734641     1.01840
C1998       C  0.72933125  0.36632818  0.80319155     1.07760
O1999       O  0.71758696  0.38858666  0.84384361    -0.74830
C2000       C  0.63533163  0.27642376  0.84940421     1.06060
C2001       C  0.92259839  0.10679711  0.72147771     0.06240
C2002       C  0.94374798  0.11624113  0.73424835    -0.09910
C2003       C  0.96343923  0.10315720  0.73623652     0.03740
C2004       C  0.96146045  0.08075018  0.72541678    -0.08440
C2005       C  0.94096869  0.07192919  0.71260352     0.06230
C2006       C  0.92144576  0.08479487  0.71066931    -0.07860
H2007       H  0.94467738  0.13340646  0.74249752     0.11820
H2008       H  0.97682127  0.07090068  0.72667646     0.09350
H2009       H  0.90600058  0.07836929  0.70053228     0.09200
C2010       C  0.52660870  0.14730357  0.76852555     0.06240
C2011       C  0.54955580  0.17967649  0.77187894    -0.09910
C2012       C  0.57299839  0.18739056  0.78340414     0.03740
C2013       C  0.57354686  0.16292840  0.79163232    -0.08440
C2014       C  0.55053718  0.13084082  0.78867043     0.06230
C2015       C  0.52703420  0.12300615  0.77728338    -0.07860
H2016       H  0.54899585  0.19874857  0.76566173     0.11820
H2017       H  0.59101973  0.16891984  0.80085488     0.09350
H2018       H  0.50850092  0.09800920  0.77576256     0.09200
Fe2019     Fe  0.51811739  0.04599735  0.65782162     1.65780
Fe2020     Fe  0.51817183  0.47797593  0.65700650     1.73250
Fe2021     Fe  0.94736241  0.47650145  0.65543203     1.54410
O2022       O  0.94332867  0.00452851  0.67068873    -0.78570
O2023       O  0.99625548  0.45393484  0.63718100    -0.76870
O2024       O  0.99208853  0.04548240  0.67670757    -0.81070
O2025       O  0.98714120  0.05052268  0.64271324    -0.75930
O2026       O  0.94592879  0.45089317  0.67455148    -0.77700
O2027       O  0.55730024  0.01371628  0.64176379    -0.80450
C2028       C  0.96226654  0.03059451  0.63500459     1.00320
C2029       C  0.96209124  0.02902931  0.67877558     1.07760
O2030       O  0.99447982  0.50250588  0.65590526    -1.09430
O2031       O  0.54269074  0.50045508  0.67681079    -0.71860
O2032       O  0.55282776  0.04987759  0.67357522    -0.75350
O2033       O  0.94813504  0.00042955  0.63676636    -0.76040
C2034       C  0.55864555  0.02981964  0.67992064     0.99220
O2035       O  0.54764508  0.05357625  0.63932091    -0.74000
O2036       O  0.98780896  0.44482799  0.67128690    -0.79190
C2037       C  0.96648872  0.43736895  0.63423212     1.01840
C2038       C  0.96204288  0.43820844  0.67812197     1.07760
O2039       O  0.94593722  0.44196059  0.64076022    -0.74830
C2040       C  0.56328090  0.04030865  0.63592985     1.06060
C2041       C  0.84965342  0.38019619  0.76997464     0.06240
C2042       C  0.81841882  0.37467286  0.77138197    -0.09910
C2043       C  0.81221026  0.39205751  0.78234994     0.03740
C2044       C  0.83721969  0.41531063  0.79155582    -0.08440
C2045       C  0.86819285  0.42087114  0.79019283     0.06230
C2046       C  0.87435435  0.40314956  0.77952262    -0.07860
H2047       H  0.79899719  0.35624782  0.76442540     0.11820
H2048       H  0.83226844  0.42810432  0.80029665     0.09350
H2049       H  0.89829860  0.40703827  0.77870729     0.09200
C2050       C  0.88352660  0.31724878  0.72086923     0.06240
C2051       C  0.90636867  0.34051496  0.71086019    -0.09910
C2052       C  0.91380572  0.37226781  0.71160864     0.03740
C2053       C  0.89838305  0.38095455  0.72240334    -0.08440
C2054       C  0.87594824  0.35819771  0.73277838     0.06230
C2055       C  0.86852746  0.32609424  0.73202324    -0.07860
H2056       H  0.91742445  0.33362276  0.70204302     0.11820
H2057       H  0.90375259  0.40552114  0.72268752     0.09350
H2058       H  0.85038125  0.30801907  0.73956784     0.09200
C2059       C  0.59595714  0.45913692  0.76620371     0.06240
C2060       C  0.57375999  0.45818441  0.77679450    -0.09910
C2061       C  0.56539175  0.43910224  0.79006911     0.03740
C2062       C  0.57829493  0.41986498  0.79270534    -0.08440
C2063       C  0.60008891  0.41996938  0.78220130     0.06230
C2064       C  0.60930547  0.43984055  0.76895085    -0.07860
H2065       H  0.56386044  0.47339250  0.77502021     0.11820
H2066       H  0.57219418  0.40559342  0.80322471     0.09350
H2067       H  0.62647065  0.44015027  0.76094211     0.09200
C2068       C  0.68057345  0.06781650  0.71953443     0.06240
C2069       C  0.65666446  0.06821493  0.71068782    -0.09910
C2070       C  0.62448512  0.04440467  0.71269601     0.03740
C2071       C  0.61603263  0.02013004  0.72374242    -0.08440
C2072       C  0.63977249  0.01980076  0.73309670     0.06230
C2073       C  0.67220341  0.04367133  0.73069277    -0.07860
H2074       H  0.66322826  0.08639611  0.70180068     0.11820
H2075       H  0.59107936  0.00117594  0.72460481     0.09350
H2076       H  0.69089070  0.04338674  0.73743033     0.09200
Fe2077     Fe  0.54639760  0.02257854  0.84357736     1.65780
Fe2078     Fe  0.97978094  0.02737740  0.84442696     1.73250
Fe2079     Fe  0.97545671  0.45650409  0.84522861     1.54410
O2080       O  0.50234322  0.44645405  0.83242296    -0.78570
O2081       O  0.95329963  0.00645962  0.86393842    -0.76870
O2082       O  0.54256462  0.99445955  0.82517284    -0.81070
O2083       O  0.54885892  0.49069925  0.85919253    -0.75930
O2084       O  0.94930030  0.45430808  0.82622083    -0.77700
O2085       O  0.51519408  0.06376269  0.85839334    -0.80450
C2086       C  0.52872360  0.46748224  0.86759816     1.00320
C2087       C  0.52614889  0.46426219  0.82379418     1.07760
O2088       O  0.49963612  0.00191504  0.84493887    -1.09430
O2089       O  0.00379104  0.05096823  0.82484044    -0.71860
O2090       O  0.55191775  0.05734249  0.82761514    -0.75350
O2091       O  0.49867375  0.45473569  0.86623180    -0.76040
C2092       C  0.53266456  0.06348155  0.82069894     0.98780
O2093       O  0.55384751  0.05258228  0.86181565    -0.74000
O2094       O  0.94328318  0.49628683  0.82957868    -0.79190
C2095       C  0.93843844  0.47749623  0.86680357     1.01840
C2096       C  0.93650251  0.47035435  0.82273817     1.07760
O2097       O  0.94169798  0.45619127  0.86009433    -0.74830
C2098       C  0.54103200  0.06881343  0.86481537     1.06060
Fe2099     Fe  0.78425202  0.14636908  0.49369135     1.65780
Fe2100     Fe  0.85298787  0.14508915  0.49331904     1.73250
Fe2101     Fe  0.85623319  0.21626504  0.49221568     1.54420
O2102       O  0.83159792  0.21756768  0.47319260    -0.78570
O2103       O  0.89013749  0.17797718  0.50771540    -0.76870
O2104       O  0.78150875  0.17878816  0.47879801    -0.81070
O2105       O  0.78521320  0.17160804  0.51270443    -0.75930
O2106       O  0.89055558  0.21776004  0.47718035    -0.77700
O2107       O  0.82968244  0.12096826  0.51294205    -0.80450
C2108       C  0.80115254  0.20149677  0.51524160     1.00320
C2109       C  0.80157688  0.20349427  0.47114293     1.07760
O2110       O  0.83117680  0.16925772  0.49299676    -1.09430
O2111       O  0.81851055  0.10859982  0.47920301    -0.71860
O2112       O  0.77975682  0.11914032  0.47475969    -0.75350
O2113       O  0.82565114  0.22118587  0.50737012    -0.76040
C2114       C  0.79317540  0.10333474  0.47221162     0.99220
O2115       O  0.78009058  0.11083729  0.50888855    -0.74000
O2116       O  0.87844889  0.16728754  0.47374652    -0.79190
C2117       C  0.89607532  0.20347108  0.51466922     1.01840
C2118       C  0.89452423  0.19685810  0.47045840     1.07760
O2119       O  0.88263062  0.21891962  0.51123834    -0.74830
C2120       C  0.80019746  0.10641712  0.51619855     1.06060
C2121       C  0.71344031  0.19638574  0.56813811     0.06240
C2122       C  0.70568945  0.22008460  0.56541748    -0.09910
C2123       C  0.72202724  0.24366303  0.55399110     0.03740
C2124       C  0.74600283  0.24367624  0.54521856    -0.08440
C2125       C  0.75339308  0.21993872  0.54751679     0.06230
C2126       C  0.73709004  0.19624857  0.55882162    -0.07860
H2127       H  0.68682408  0.21998460  0.57203656     0.11820
H2128       H  0.75787125  0.26130418  0.53607270     0.09350
H2129       H  0.74220872  0.17721983  0.55986809     0.09200
C2130       C  0.69493501  0.13374512  0.60069214     0.06240
C2131       C  0.66155613  0.11447176  0.60341974    -0.09910
C2132       C  0.65021303  0.09310226  0.61612211     0.03740
C2133       C  0.67203622  0.09138635  0.62610772    -0.08440
C2134       C  0.70495971  0.11048606  0.62346933     0.06230
C2135       C  0.71625074  0.13120441  0.61075106    -0.07860
H2136       H  0.64460245  0.11580876  0.59576897     0.11820
H2137       H  0.66340896  0.07577191  0.63618602     0.09350
H2138       H  0.74194599  0.14624819  0.60896783     0.09200
C2139       C  0.51972979  0.27507808  0.55587146     0.06240
C2140       C  0.99495924  0.25818526  0.54561282    -0.09910
C2141       C  0.96325073  0.24940765  0.54824489     0.03740
C2142       C  0.95559938  0.26119748  0.56123534    -0.08440
C2143       C  0.97972262  0.28164554  0.57181297     0.06230
C2144       C  0.51254279  0.28593447  0.56946676    -0.07860
H2145       H  0.00088872  0.24977088  0.53525980     0.11820
H2146       H  0.93086677  0.25426826  0.56314573     0.09350
H2147       H  0.53157128  0.30125558  0.57751548     0.09200
C2148       C  0.93946802  0.31192034  0.59930798     0.06240
C2149       C  0.94694912  0.34364951  0.60148667    -0.09910
C2150       C  0.93603113  0.35167354  0.61472720     0.03740
C2151       C  0.91687723  0.32787202  0.62551995    -0.08440
C2152       C  0.90893959  0.29617176  0.62331343     0.06230
C2153       C  0.92050887  0.28822969  0.61029457    -0.07860
H2154       H  0.96181143  0.36207482  0.59313024     0.11820
H2155       H  0.90875818  0.33418568  0.63584553     0.09350
H2156       H  0.91456825  0.26368747  0.60862468     0.09200
C2157       C  0.76004194  0.48468725  0.55253285     0.06240
C2158       C  0.76121805  0.00679670  0.54539587    -0.09910
C2159       C  0.78421629  0.03903230  0.54802485     0.03740
C2160       C  0.80810969  0.04741626  0.55927995    -0.08440
C2161       C  0.80892201  0.02351112  0.56821430     0.06230
C2162       C  0.78325671  0.49259749  0.56416925    -0.07860
H2163       H  0.74338827  0.00035088  0.53630629     0.11820
H2164       H  0.82655937  0.07250017  0.56059229     0.09350
H2165       H  0.78326598  0.47365002  0.57078889     0.09200
C2166       C  0.91250337  0.06649253  0.61585662     0.06240
C2167       C  0.89138726  0.05667866  0.60306108    -0.09910
C2168       C  0.87113907  0.06912336  0.60103883     0.03740
C2169       C  0.87251042  0.09123058  0.61187931    -0.08440
C2170       C  0.89299973  0.10035892  0.62472138     0.06230
C2171       C  0.91307392  0.08816842  0.62665539    -0.07860
H2172       H  0.89087547  0.03969014  0.59483034     0.11820
H2173       H  0.85668271  0.10053452  0.61062339     0.09350
H2174       H  0.92844514  0.09478240  0.63683135     0.09200
Fe2175     Fe  0.88060121  0.19488028  0.68181136     1.65780
Fe2176     Fe  0.80684929  0.18617573  0.67907639     1.73250
Fe2177     Fe  0.81363823  0.12031863  0.67995846     1.54410
O2178       O  0.84070295  0.12307679  0.66135049    -0.78570
O2179       O  0.77164551  0.15114274  0.69351907    -0.76870
O2180       O  0.88870140  0.16590055  0.66709047    -0.81070
O2181       O  0.88335402  0.17148185  0.70109805    -0.75930
O2182       O  0.77735775  0.11243758  0.66439127    -0.77700
O2183       O  0.82787413  0.21467572  0.69822916    -0.80450
C2184       C  0.87128073  0.14156837  0.70287714     1.00320
C2185       C  0.87057870  0.14087743  0.65911440     1.07760
O2186       O  0.83367973  0.16718881  0.68042390    -1.09430
O2187       O  0.83814262  0.22290855  0.66405702    -0.71860
O2188       O  0.88240441  0.22034575  0.66253643    -0.75350
O2189       O  0.84709679  0.12059672  0.69519201    -0.76040
C2190       C  0.86499293  0.23095407  0.65795125     0.99220
O2191       O  0.87902822  0.22820135  0.69637477    -0.74000
O2192       O  0.78332595  0.16019430  0.65974916    -0.79190
C2193       C  0.76722753  0.12607029  0.70050371     1.01840
C2194       C  0.77073305  0.13065714  0.65683472     1.07760
O2195       O  0.78463877  0.11417551  0.69841645    -0.74830
C2196       C  0.85714691  0.23187595  0.70206843     1.06060
C2197       C  0.89060405  0.11934584  0.63673642    -0.10170
C2198       C  0.88408896  0.13155073  0.64704452    -0.11730
C2199       C  0.83390051  0.03188034  0.58041626    -0.13330
C2200       C  0.84821695  0.06028672  0.58789708    -0.28500
H2201       H  0.83888266  0.01353694  0.58402781     0.15700
H2202       H  0.84072953  0.07720600  0.58524651     0.16270
C2203       C  0.87690276  0.25334649  0.64527933    -0.10170
C2204       C  0.89033393  0.27235798  0.63491198    -0.11730
C2205       C  0.97145361  0.29353739  0.58576940    -0.13330
C2206       C  0.95012992  0.30313891  0.58519440    -0.28500
H2207       H  0.98323879  0.29466722  0.59669578     0.15700
H2208       H  0.94024481  0.30470111  0.57412949     0.16270
C2209       C  0.72747240  0.11176187  0.63471831    -0.10170
C2210       C  0.74724345  0.11763503  0.64465733    -0.11730
C2211       C  0.69605982  0.17163213  0.58041806    -0.13330
C2212       C  0.70932159  0.15662149  0.58752987    -0.28500
H2213       H  0.67307733  0.16738351  0.58436711     0.15700
H2214       H  0.73360215  0.16341474  0.58448070     0.16270
C2215       C  0.77508968  0.21783328  0.53706119    -0.10170
C2216       C  0.78972743  0.21301588  0.52733970    -0.11730
C2217       C  0.78957630  0.08309937  0.52839177    -0.10170
C2218       C  0.78542364  0.06320739  0.53794212    -0.11730
C2219       C  0.93900866  0.22998949  0.53698879    -0.10170
C2220       C  0.91938281  0.21609231  0.52691239    -0.11730
C2221       C  0.73955947  0.10861141  0.71021784    -0.10170
C2222       C  0.71365031  0.09072382  0.71590542    -0.11730
C2223       C  0.53499463  0.44993964  0.81195343    -0.10170
C2224       C  0.54671480  0.44246534  0.80184397    -0.11730
C2225       C  0.60387312  0.48076739  0.75261169    -0.13330
C2226       C  0.63247978  0.49619665  0.74539638    -0.28500
H2227       H  0.58603367  0.48679305  0.74955349     0.15700
H2228       H  0.65154496  0.49262352  0.74940749     0.16270
C2229       C  0.87347473  0.28410649  0.71804843    -0.10170
C2230       C  0.86609211  0.25856574  0.71229285    -0.11730
C2231       C  0.89281460  0.44249173  0.80083951    -0.10170
C2232       C  0.91280752  0.45762695  0.81062857    -0.11730
C2233       C  0.85705636  0.36183937  0.75889457    -0.13330
C2234       C  0.86001787  0.36891193  0.74371981    -0.28500
H2235       H  0.86548216  0.34670753  0.76346917     0.15700
H2236       H  0.85497247  0.38700981  0.73967722     0.16270
C2237       C  0.58122407  0.03960277  0.69251111    -0.10170
C2238       C  0.60058531  0.04318753  0.70231531    -0.11730
C2239       C  0.94967277  0.41485204  0.69034509    -0.10170
C2240       C  0.93499035  0.39535522  0.70034563    -0.11730
C2241       C  0.94758092  0.04273908  0.62484279    -0.10170
C2242       C  0.93209312  0.05295200  0.61902037    -0.11730
C2243       C  0.59059456  0.05748687  0.62589963    -0.10170
C2244       C  0.61652637  0.07379053  0.61986936    -0.11730
C2245       C  0.95534024  0.41030976  0.62408644    -0.10170
C2246       C  0.94639368  0.38453313  0.61824940    -0.11730
C2247       C  0.54383479  0.08623062  0.80825208    -0.10170
C2248       C  0.54865730  0.10623863  0.79865043    -0.11730
C2249       C  0.88750222  0.13088902  0.71292071    -0.10170
C2250       C  0.90331455  0.12077921  0.71848345    -0.11730
C2251       C  0.94914385  0.03943673  0.69066538    -0.10170
C2252       C  0.94282201  0.05235975  0.70070732    -0.11730
C2253       C  0.98634680  0.11147983  0.74933377    -0.13330
C2254       C  0.00093551  0.13963399  0.75703999    -0.28500
H2255       H  0.99356678  0.09427738  0.75176736     0.15700
H2256       H  0.49676042  0.15774857  0.75287452     0.16270
C2257       C  0.75522441  0.37664347  0.79241350    -0.10170
C2258       C  0.77996735  0.38366852  0.78600612    -0.11730
C2259       C  0.62422446  0.38633703  0.79284722    -0.10170
C2260       C  0.61416896  0.40119281  0.78619251    -0.11730
C2261       C  0.61146784  0.24522183  0.79483259    -0.10170
C2262       C  0.59471675  0.22008090  0.78818528    -0.11730
C2263       C  0.54026595  0.45291743  0.87811004    -0.10170
C2264       C  0.54915509  0.43674800  0.88435514    -0.11730
C2265       C  0.62508211  0.38321255  0.86020572    -0.10170
C2266       C  0.61106145  0.38828966  0.87018030    -0.11730
C2267       C  0.54904620  0.32899967  0.92202222    -0.13330
C2268       C  0.53563923  0.34402196  0.91509394    -0.28500
H2269       H  0.57297896  0.33522290  0.91860167     0.15700
H2270       H  0.51311268  0.34028414  0.91946158     0.16270
C2271       C  0.88772109  0.46084081  0.88371340    -0.10170
C2272       C  0.91252668  0.46775663  0.87745295    -0.11730
C2273       C  0.77472172  0.40143769  0.86924767    -0.10170
C2274       C  0.75472295  0.38633757  0.85945747    -0.11730
C2275       C  0.78263498  0.46693848  0.91997749    -0.13330
C2276       C  0.81138894  0.48006952  0.91300900    -0.28500
H2277       H  0.76381416  0.44281993  0.91674483     0.15700
H2278       H  0.83128496  0.50271447  0.91730435     0.16270
C2279       C  0.57529024  0.12044302  0.88196590    -0.10170
C2280       C  0.55796934  0.09550573  0.87524428    -0.11730
C2281       C  0.62133710  0.23418194  0.87158941    -0.10170
C2282       C  0.62519125  0.25375400  0.86189721    -0.11730
C2283       C  0.66872722  0.20088856  0.91393529    -0.13330
C2284       C  0.68299952  0.22901332  0.92170027    -0.28500
H2285       H  0.67369537  0.18242237  0.91732428     0.15700
H2286       H  0.67549877  0.24597757  0.91919707     0.16270
C2287       C  0.71736778  0.42896734  0.98076908    -0.10170
C2288       C  0.72968064  0.44798517  0.97035692    -0.11730
C2289       C  0.72141520  0.30243707  0.98058979    -0.10170
C2290       C  0.72676802  0.28938185  0.97022661    -0.11730
C2291       C  0.56871151  0.28821267  0.97027138    -0.10170
C2292       C  0.58853022  0.29428280  0.98020739    -0.11730
C2293       C  0.88826101  0.11800741  0.13643936    -0.10170
C2294       C  0.87661270  0.12459967  0.14694474    -0.11730
C2295       C  0.55512003  0.26820153  0.05086634    -0.10170
C2296       C  0.58150530  0.28496569  0.04547782    -0.11730
C2297       C  0.97125761  0.17365247  0.07962268    -0.13330
C2298       C  0.94236855  0.15769853  0.08649059    -0.28500
H2299       H  0.99018914  0.16996649  0.08373957     0.15700
H2300       H  0.92439982  0.16356942  0.08345639     0.16270
C2301       C  0.73335185  0.11341221  0.13611468    -0.10170
C2302       C  0.75213918  0.12645546  0.14662270    -0.11730
C2303       C  0.71272533  0.43230016  0.04763580    -0.10170
C2304       C  0.72132828  0.45777949  0.05374410    -0.11730
C2305       C  0.70310257  0.05549275  0.08566051    -0.13330
C2306       C  0.71957820  0.04037357  0.08640238    -0.28500
H2307       H  0.69519205  0.05928170  0.07447476     0.15700
H2308       H  0.72476050  0.03378865  0.09761939     0.16270
C2309       C  0.88136515  0.25839100  0.14509480    -0.10170
C2310       C  0.88610694  0.27859795  0.13557869    -0.11730
C2311       C  0.72889183  0.30439533  0.04745440    -0.10170
C2312       C  0.74428397  0.29418980  0.05339921    -0.11730
C2313       C  0.82563975  0.28328480  0.08490611    -0.13330
C2314       C  0.84059563  0.31172391  0.09237381    -0.28500
H2315       H  0.83223913  0.26573619  0.08768806     0.15700
H2316       H  0.83646726  0.33057541  0.08863051     0.16270
C2317       C  0.78254625  0.22503640  0.03579529    -0.10170
C2318       C  0.78827312  0.21248166  0.02533775    -0.11730
C2319       C  0.79144600  0.08810524  0.02575546    -0.10170
C2320       C  0.77805492  0.06931018  0.03620243    -0.11730
C2321       C  0.92210793  0.21960030  0.02731294    -0.10170
C2322       C  0.94187379  0.22385824  0.03702988    -0.11730
C2323       C  0.93092992  0.23248765  0.96136456    -0.10170
C2324       C  0.95708521  0.24896935  0.95558099    -0.11730
C2325       C  0.80058386  0.08453481  0.95847520    -0.10170
C2326       C  0.79163145  0.05882854  0.95250458    -0.11730
C2327       C  0.78451705  0.21366769  0.95871833    -0.10170
C2328       C  0.76819056  0.22281868  0.95274492    -0.11730
C2329       C  0.89548088  0.26704984  0.21108746    -0.10170
C2330       C  0.91311573  0.29281819  0.21703287    -0.11730
C2331       C  0.56501937  0.46114987  0.30365137    -0.10170
C2332       C  0.55819808  0.47312253  0.31394576    -0.11730
C2333       C  0.50754920  0.37525770  0.24708329    -0.13330
C2334       C  0.52270257  0.40379905  0.25443790    -0.28500
H2335       H  0.51168377  0.35641188  0.25083294     0.15700
H2336       H  0.51609601  0.42135394  0.25168785     0.16270
C2337       C  0.72411504  0.12541553  0.22058556    -0.10170
C2338       C  0.74940777  0.13456125  0.21427156    -0.11730
C2339       C  0.55291780  0.09499715  0.31325456    -0.10170
C2340       C  0.56672372  0.11423160  0.30302008    -0.11730
C2341       C  0.62549126  0.14205012  0.25305493    -0.13330
C2342       C  0.64237795  0.12741780  0.25402632    -0.28500
H2343       H  0.62003095  0.14808193  0.24176182     0.15700
H2344       H  0.65058523  0.12423911  0.26526301     0.16270
C2345       C  0.96607174  0.42660161  0.19510012    -0.10170
C2346       C  0.96176469  0.40654725  0.20460676    -0.11730
C2347       C  0.59341405  0.05804645  0.19302951    -0.10170
C2348       C  0.61248308  0.07051845  0.20347599    -0.11730
C2349       C  0.93443718  0.39266662  0.12350203    -0.10170
C2350       C  0.95176618  0.41860204  0.12938720    -0.11730
C2351       C  0.59662397  0.05026874  0.12547383    -0.10170
C2352       C  0.62176096  0.05868871  0.11912818    -0.11730
C2353       C  0.96877141  0.06608797  0.12487258    -0.10170
C2354       C  0.95753697  0.08029246  0.11870166    -0.11730
C2355       C  0.89039442  0.10928609  0.22025687    -0.10170
C2356       C  0.88018466  0.12436157  0.21399083    -0.11730
C2357       C  0.95791760  0.06947825  0.20272498    -0.10170
C2358       C  0.97006974  0.06352882  0.19220046    -0.11730
C2359       C  0.91921597  0.45856462  0.31183383    -0.10170
C2360       C  0.89992454  0.45321465  0.30174517    -0.11730
C2361       C  0.87028259  0.01104526  0.25859672    -0.13330
C2362       C  0.89876190  0.02582937  0.25126568    -0.28500
H2363       H  0.85184667  0.01590288  0.25500261     0.15700
H2364       H  0.91583650  0.01853651  0.25388590     0.16270
C2365       C  0.78982199  0.41793988  0.28679736    -0.10170
C2366       C  0.76397173  0.40195143  0.29293834    -0.11730
C2367       C  0.60411625  0.39283638  0.28566297    -0.10170
C2368       C  0.61915325  0.38210396  0.29145044    -0.11730
C2369       C  0.62378826  0.22565263  0.28492810    -0.10170
C2370       C  0.63322438  0.25177793  0.29044106    -0.11730
C2371       C  0.56956328  0.45463839  0.38564584    -0.10170
C2372       C  0.55472062  0.46553223  0.37980991    -0.11730
C2373       C  0.61146292  0.38868382  0.36770358    -0.10170
C2374       C  0.61913236  0.37732013  0.35749036    -0.11730
C2375       C  0.76050954  0.05129283  0.45541418    -0.10170
C2376       C  0.77736088  0.07662943  0.46182071    -0.11730
C2377       C  0.65029528  0.44378359  0.41742620    -0.13330
C2378       C  0.66611552  0.47267097  0.42441102    -0.28500
H2379       H  0.65646949  0.42598170  0.42033906     0.15700
H2380       H  0.66234332  0.49162529  0.42042243     0.16270
C2381       C  0.94477916  0.21396424  0.45303489    -0.10170
C2382       C  0.92019848  0.20701696  0.45957684    -0.11730
C2383       C  0.55181601  0.12386918  0.38543924    -0.10170
C2384       C  0.54384233  0.09811699  0.37976423    -0.11730
C2385       C  0.62751199  0.25367686  0.35654260    -0.10170
C2386       C  0.61423224  0.23441848  0.36679853    -0.11730
C2387       C  0.55272664  0.21405562  0.41476052    -0.13330
C2388       C  0.52394773  0.19917650  0.42184565    -0.28500
H2389       H  0.56997687  0.23891056  0.41772591     0.15700
H2390       H  0.50517222  0.17556498  0.41791669     0.16270
C2391       C  0.78135719  0.23396436  0.45383943    -0.10170
C2392       C  0.78993113  0.21792677  0.46054194    -0.11730
C2393       C  0.88424857  0.43121673  0.38446615    -0.10170
C2394       C  0.90995310  0.44745098  0.37825345    -0.11730
C2395       C  0.77225887  0.38957758  0.37061731    -0.10170
C2396       C  0.75363698  0.38502837  0.36026504    -0.11730
C2397       C  0.79617036  0.35229863  0.41930836    -0.13330
C2398       C  0.79464410  0.32397774  0.42059073    -0.28500
H2399       H  0.78601411  0.36013922  0.42812094     0.15700
H2400       H  0.80544732  0.31719924  0.41155750     0.16270
C2401       C  0.55820443  0.27520361  0.46635938    -0.10170
C2402       C  0.57784956  0.28944612  0.47638038    -0.11730
C2403       C  0.71450646  0.44057070  0.46642541    -0.10170
C2404       C  0.70950477  0.42039648  0.47594940    -0.11730
C2405       C  0.70582104  0.28927095  0.47563039    -0.10170
C2406       C  0.71953799  0.28366536  0.46571225    -0.11730
C2407       C  0.73783796  0.45178491  0.54829249    -0.10170
C2408       C  0.72080669  0.42617020  0.54211366    -0.11730
C2409       C  0.57668965  0.29452644  0.54431772    -0.10170
C2410       C  0.55222528  0.28594030  0.55137096    -0.11730
C2411       C  0.70429083  0.28242445  0.54308170    -0.10170
C2412       C  0.71221618  0.26581583  0.54969950    -0.11730
Fe2413     Fe  0.63942837  0.78477010  0.51233085     1.65780
Fe2414     Fe  0.64596635  0.85756293  0.51171871     1.73250
Fe2415     Fe  0.71299638  0.85304823  0.51117882     1.54420
O2416       O  0.71390681  0.81969761  0.52616585    -0.78570
O2417       O  0.66988965  0.88152128  0.49219773    -0.76870
O2418       O  0.66324522  0.78154859  0.53127127    -0.81070
O2419       O  0.66881824  0.77846467  0.49701885    -0.75930
O2420       O  0.71892526  0.88100941  0.53007735    -0.77700
O2421       O  0.60822197  0.82598232  0.49720790    -0.80450
C2422       C  0.69378638  0.79756643  0.48929674     1.00320
C2423       C  0.69314885  0.79492246  0.53357956     1.07760
O2424       O  0.66613957  0.83178910  0.51184888    -1.09430
O2425       O  0.61993144  0.83555739  0.53120008    -0.71860
O2426       O  0.60589382  0.78457580  0.52741848    -0.75350
O2427       O  0.71104208  0.82725830  0.49216153    -0.76040
C2428       C  0.60281663  0.80592605  0.53425837     0.99220
O2429       O  0.61368340  0.78385702  0.49336758    -0.74000
O2430       O  0.68123684  0.89315265  0.52593198    -0.79190
C2431       C  0.69920045  0.89476890  0.48875664     1.01840
C2432       C  0.70647631  0.89768309  0.53274144     1.07760
O2433       O  0.71864499  0.88910924  0.49589484    -0.74830
C2434       C  0.60124471  0.80032138  0.49010127     1.06060
C2435       C  0.85403389  0.91373033  0.38872264     0.06240
C2436       C  0.82947151  0.91239223  0.37969956    -0.09910
C2437       C  0.79745560  0.88969007  0.38289915     0.03740
C2438       C  0.78976823  0.86816556  0.39522154    -0.08440
C2439       C  0.81421379  0.86877194  0.40433038     0.06230
C2440       C  0.84648273  0.89209658  0.40109302    -0.07860
H2441       H  0.83533231  0.92837422  0.36983674     0.11820
H2442       H  0.76471542  0.85103909  0.39755584     0.09350
H2443       H  0.86562555  0.89281356  0.40788013     0.09200
C2444       C  0.77059790  0.75611757  0.44816258     0.06240
C2445       C  0.74857330  0.75675082  0.45824920    -0.09910
C2446       C  0.73706159  0.77716847  0.45532585     0.03740
C2447       C  0.74734447  0.79687002  0.44215757    -0.08440
C2448       C  0.76962821  0.79662181  0.43203689     0.06230
C2449       C  0.78135488  0.77619095  0.43506064    -0.07860
H2450       H  0.74106529  0.74197531  0.46862559     0.11820
H2451       H  0.73851153  0.81284097  0.43992656     0.09350
H2452       H  0.79863388  0.77595423  0.42731066     0.09200
C2453       C  0.55880630  0.65522114  0.38961077     0.06240
C2454       C  0.54791996  0.66618238  0.40183669    -0.09910
C2455       C  0.55935018  0.69931739  0.40318984     0.03740
C2456       C  0.58117609  0.72074053  0.39220774    -0.08440
C2457       C  0.59128782  0.70960877  0.37994204     0.06230
C2458       C  0.58028171  0.67700023  0.37869183    -0.07860
H2459       H  0.53124074  0.64925296  0.41024916     0.11820
H2460       H  0.58986765  0.74620063  0.39302860     0.09350
H2461       H  0.58792320  0.66845164  0.36900786     0.09200
C2462       C  0.98045231  0.72617466  0.44776901     0.06240
C2463       C  0.98752594  0.70903377  0.43711581    -0.09910
C2464       C  0.51529431  0.71566068  0.43569814     0.03740
C2465       C  0.53989565  0.73811001  0.44558218    -0.08440
C2466       C  0.53334104  0.75416999  0.45700660     0.06230
C2467       C  0.50222961  0.74790254  0.45877174    -0.07860
H2468       H  0.96859557  0.69032939  0.43005244     0.11820
H2469       H  0.56398677  0.74243841  0.44479276     0.09350
H2470       H  0.49706973  0.75967440  0.46797038     0.09200
C2471       C  0.73977166  0.52099897  0.44986213     0.06240
C2472       C  0.74029975  0.49684360  0.45839343    -0.09910
C2473       C  0.71547149  0.96220863  0.45705075     0.03740
C2474       C  0.69054789  0.95418510  0.44643676    -0.08440
C2475       C  0.68965226  0.97829980  0.43769683     0.06230
C2476       C  0.71545192  0.51303865  0.43884366    -0.07860
H2477       H  0.75853832  0.50311978  0.46724908     0.11820
H2478       H  0.67152481  0.92925395  0.44550445     0.09350
H2479       H  0.71501017  0.53193928  0.43239306     0.09200
C2480       C  0.58771814  0.93994613  0.38939844     0.06240
C2481       C  0.60710570  0.94818377  0.40281572    -0.09910
C2482       C  0.62595899  0.93432152  0.40540743     0.03740
C2483       C  0.62507032  0.91255206  0.39454863    -0.08440
C2484       C  0.60659875  0.90520030  0.38108554     0.06230
C2485       C  0.58777041  0.91864565  0.37854866    -0.07860
H2486       H  0.60740982  0.96502015  0.41108123     0.11820
H2487       H  0.63998727  0.90230076  0.39625012     0.09350
H2488       H  0.57390185  0.91329206  0.36790587     0.09200
Fe2489     Fe  0.69076784  0.88714564  0.32762683     1.65780
Fe2490     Fe  0.69520892  0.81989297  0.32511083     1.73250
Fe2491     Fe  0.62273028  0.81401156  0.32380162     1.54410
O2492       O  0.61467263  0.84214619  0.33893117    -0.78570
O2493       O  0.67347230  0.79452435  0.30524821    -0.76870
O2494       O  0.66264256  0.88301419  0.34605893    -0.81070
O2495       O  0.65926321  0.88978733  0.31215857    -0.75930
O2496       O  0.62034969  0.78680469  0.34241255    -0.77700
O2497       O  0.73080690  0.85568887  0.31128159    -0.80450
C2498       C  0.63547291  0.86995157  0.30387343     1.00320
C2499       C  0.63250333  0.86609785  0.34750573     1.07760
O2500       O  0.66968220  0.84039263  0.32543858    -1.09430
O2501       O  0.71944283  0.84269687  0.34497544    -0.71860
O2502       O  0.72475712  0.89091624  0.34361320    -0.75350
O2503       O  0.62202506  0.83975889  0.30514203    -0.76040
C2504       C  0.73109355  0.87113112  0.34976816     0.99220
O2505       O  0.72106163  0.89559660  0.30943470    -0.74000
O2506       O  0.66298675  0.78180608  0.33914288    -0.79190
C2507       C  0.64390329  0.77770121  0.30199003     1.01840
C2508       C  0.63681177  0.77436221  0.34580708     1.07760
O2509       O  0.62277811  0.78112221  0.30864140    -0.74830
C2510       C  0.73651721  0.88234483  0.30569538     1.06060
C2511       C  0.82121927  0.93862426  0.28466536     0.06240
C2512       C  0.82946843  0.96271416  0.27349014    -0.09910
C2513       C  0.86195413  0.98572662  0.27057830     0.03740
C2514       C  0.88583592  0.98464651  0.27943349    -0.08440
C2515       C  0.87743031  0.96044898  0.29048601     0.06230
C2516       C  0.84522847  0.93741321  0.29298572    -0.07860
H2517       H  0.81070024  0.96371444  0.26719786     0.11820
H2518       H  0.91090170  0.00313342  0.27825233     0.09350
H2519       H  0.83877582  0.91937827  0.30194178     0.09200
C2520       C  0.89015206  0.54074496  0.23591963     0.06240
C2521       C  0.91291443  0.53995433  0.22618394    -0.09910
C2522       C  0.92990708  0.56422240  0.21520738     0.03740
C2523       C  0.92407924  0.58924265  0.21368874    -0.08440
C2524       C  0.90102250  0.58993491  0.22294488     0.06230
C2525       C  0.88406050  0.56577669  0.23401737    -0.07860
H2526       H  0.91680960  0.52004791  0.22664935     0.11820
H2527       H  0.93639335  0.60735676  0.20479027     0.09350
H2528       H  0.86587531  0.56622872  0.24097963     0.09200
Fe2529     Fe  0.96015009  0.99436213  0.15839995     1.65780
Fe2530     Fe  0.53499696  0.56127964  0.15751414     1.73250
Fe2531     Fe  0.52675570  0.98855141  0.15899544     1.54420
O2532       O  0.00153875  0.96495038  0.17812259    -0.78570
O2533       O  0.56853207  0.56149024  0.14262770    -0.76870
O2534       O  0.95358218  0.95904366  0.17415178    -0.81070
O2535       O  0.95449155  0.96516300  0.14004666    -0.75930
O2536       O  0.56703876  0.52148847  0.17377847    -0.77700
O2537       O  0.00763811  0.56249178  0.14068687    -0.80450
C2538       C  0.96758329  0.94899562  0.13754215     1.00320
C2539       C  0.97220260  0.95250453  0.18138249     1.07760
O2540       O  0.50895453  0.51416260  0.15879410    -1.09430
O2541       O  0.50587580  0.56831087  0.17249191    -0.71860
O2542       O  0.96060735  0.51542845  0.17958582    -0.75350
O2543       O  0.49247852  0.95295506  0.14451269    -0.76040
C2544       C  0.97667862  0.54518782  0.18242280     0.99220
O2545       O  0.95756719  0.52247196  0.14553382    -0.74000
O2546       O  0.56156549  0.56392303  0.17652751    -0.79190
C2547       C  0.57259229  0.54040404  0.13627141     1.01840
C2548       C  0.57384532  0.54757677  0.18041056     1.07760
O2549       O  0.55622246  0.51087125  0.13970263    -0.74830
C2550       C  0.97765199  0.54785413  0.13825967     1.06060
C2551       C  0.61529352  0.65157401  0.26745640     0.06240
C2552       C  0.62316709  0.68351679  0.26920103    -0.09910
C2553       C  0.61314324  0.69256815  0.28239503     0.03740
C2554       C  0.59430019  0.66957134  0.29355523    -0.08440
C2555       C  0.58589021  0.63764671  0.29177793     0.06230
C2556       C  0.59673311  0.62867694  0.27883864    -0.07860
H2557       H  0.63784869  0.70137983  0.26058588     0.11820
H2558       H  0.58680683  0.67669486  0.30383139     0.09350
H2559       H  0.59046275  0.60395463  0.27752163     0.09200
C2560       C  0.65259466  0.61782789  0.24028583     0.06240
C2561       C  0.68470476  0.62651910  0.23818518    -0.09910
C2562       C  0.69368503  0.61752041  0.22458197     0.03740
C2563       C  0.67050400  0.59894193  0.21338302    -0.08440
C2564       C  0.63851961  0.58980949  0.21551001     0.06230
C2565       C  0.62957267  0.59944590  0.22886086    -0.07860
H2566       H  0.70272875  0.64121511  0.24678140     0.11820
H2567       H  0.67754344  0.59238286  0.20277002     0.09350
H2568       H  0.60476434  0.59263484  0.23037544     0.09200
C2569       C  0.53483407  0.89275172  0.27045996     0.06240
C2570       C  0.55898702  0.88550184  0.27257874    -0.09910
C2571       C  0.58247232  0.90113648  0.28412847     0.03740
C2572       C  0.58197583  0.92399841  0.29367449    -0.08440
C2573       C  0.55780431  0.93099164  0.29193209     0.06230
C2574       C  0.53422017  0.91536533  0.28043126    -0.07860
H2575       H  0.55926173  0.86742744  0.26540307     0.11820
H2576       H  0.59954147  0.93525054  0.30293620     0.09350
H2577       H  0.51491532  0.92012306  0.27973056     0.09200
C2578       C  0.97342103  0.87616016  0.23798438     0.06240
C2579       C  0.97161916  0.89783602  0.22790750    -0.09910
C2580       C  0.95166410  0.88689894  0.21486781     0.03740
C2581       C  0.93254045  0.85402494  0.21195031    -0.08440
C2582       C  0.93350810  0.83187274  0.22197084     0.06230
C2583       C  0.95416362  0.84283561  0.23497554    -0.07860
H2584       H  0.98670869  0.92349441  0.22991743     0.11820
H2585       H  0.91751231  0.84569615  0.20163347     0.09350
H2586       H  0.95498954  0.82563824  0.24264785     0.09200
Fe2587     Fe  0.97874518  0.52450436  0.34727215     1.65780
Fe2588     Fe  0.55349853  0.53389030  0.34975998     1.73250
Fe2589     Fe  0.98273576  0.95964970  0.34584522     1.54420
O2590       O  0.95435854  0.95440291  0.36440541    -0.78570
O2591       O  0.56182990  0.50544533  0.33477655    -0.76870
O2592       O  0.94284741  0.48981473  0.36158960    -0.81070
O2593       O  0.95483324  0.49966365  0.32775920    -0.75930
O2594       O  0.51490009  0.95718341  0.36159068    -0.77700
O2595       O  0.55734046  0.56120608  0.33092235    -0.80450
C2596       C  0.94353665  0.97573517  0.32294213     1.00320
C2597       C  0.93870265  0.96796659  0.36704491     1.07760
O2598       O  0.50664826  0.50761889  0.34745428    -1.09430
O2599       O  0.55235670  0.56675228  0.36478286    -0.71860
O2600       O  0.50145540  0.55374463  0.36667529    -0.75350
O2601       O  0.94793612  0.95555931  0.33016869    -0.76040
C2602       C  0.53058273  0.57024997  0.37071575     0.99220
O2603       O  0.51417723  0.56574974  0.33265802    -0.74000
O2604       O  0.55399828  0.00725966  0.36726603    -0.79190
C2605       C  0.53840673  0.97678728  0.32516895     1.01840
C2606       C  0.53981601  0.97716111  0.36922858     1.07760
O2607       O  0.50853767  0.96071385  0.32761476    -0.74830
C2608       C  0.54090424  0.57310769  0.32658125     1.06060
Fe2609     Fe  0.78958786  0.64769100  0.98994062     1.65780
Fe2610     Fe  0.86206647  0.65356344  0.99197588     1.73250
Fe2611     Fe  0.85798564  0.72103972  0.99258776     1.54420
O2612       O  0.82531404  0.72262619  0.97716896    -0.78570
O2613       O  0.88596713  0.67750344  0.01160644    -0.76870
O2614       O  0.78796135  0.67221176  0.97091003    -0.81070
O2615       O  0.78232551  0.67688732  0.00492434    -0.75930
O2616       O  0.88745230  0.72777777  0.97419024    -0.77700
O2617       O  0.82983686  0.61644762  0.00660230    -0.80450
C2618       C  0.80084454  0.70122906  0.01320844     1.00320
C2619       C  0.80090092  0.70227637  0.96929796     1.07760
O2620       O  0.83661097  0.67411766  0.99135218    -1.09430
O2621       O  0.84058853  0.62692129  0.97241144    -0.71860
O2622       O  0.78982579  0.61407887  0.97503865    -0.75350
O2623       O  0.83083610  0.71818559  0.01118197    -0.76040
C2624       C  0.81118511  0.61027670  0.96879970     0.99220
O2625       O  0.78719179  0.62158235  0.00901290    -0.74000
O2626       O  0.89802768  0.68875401  0.97788595    -0.79190
C2627       C  0.89898845  0.70664474  0.01541756     1.01840
C2628       C  0.90365011  0.71477690  0.97147499     1.07760
O2629       O  0.89322260  0.72622411  0.00848006    -0.74830
C2630       C  0.80374205  0.60971283  0.01315868     1.06060
C2631       C  0.76189669  0.77821938  0.05621116     0.06240
C2632       C  0.76059918  0.75595627  0.04555771    -0.09910
C2633       C  0.77992278  0.74292676  0.04764539     0.03740
C2634       C  0.80038509  0.75184513  0.06050818    -0.08440
C2635       C  0.80244527  0.77454582  0.07118347     0.06230
C2636       C  0.78289761  0.78772958  0.06901003    -0.07860
H2637       H  0.74528686  0.74954847  0.03536926     0.11820
H2638       H  0.81570317  0.74197832  0.06188566     0.09350
H2639       H  0.78389098  0.80513166  0.07712521     0.09200
C2640       C  0.91187840  0.86240228  0.11783133     0.06240
C2641       C  0.88830540  0.85365483  0.10629760    -0.09910
C2642       C  0.86511381  0.82106644  0.10367120     0.03740
C2643       C  0.86546805  0.79754104  0.11311611    -0.08440
C2644       C  0.88906928  0.80637464  0.12457999     0.06230
C2645       C  0.91229654  0.83871800  0.12685120    -0.07860
H2646       H  0.88785083  0.87215364  0.09948543     0.11820
H2647       H  0.84686755  0.77245367  0.11203533     0.09350
H2648       H  0.92993069  0.84555829  0.13607119     0.09200
C2649       C  0.72912474  0.53134076  0.07232568     0.06240
C2650       C  0.74848020  0.55462516  0.06120130    -0.09910
C2651       C  0.75978348  0.54601770  0.04830901     0.03740
C2652       C  0.75142691  0.51418065  0.04633928    -0.08440
C2653       C  0.73278649  0.99078405  0.05705703     0.06230
C2654       C  0.72250739  0.99938511  0.07034418    -0.07860
H2655       H  0.75502327  0.57939760  0.06263966     0.11820
H2656       H  0.75940190  0.50743488  0.03610323     0.09350
H2657       H  0.70789532  0.98126358  0.07887178     0.09200
C2658       C  0.65731689  0.57136585  0.11590308     0.06240
C2659       C  0.66602434  0.56184306  0.10237497    -0.09910
C2660       C  0.69817806  0.57084622  0.10007931     0.03740
C2661       C  0.72150783  0.58985301  0.11126842    -0.08440
C2662       C  0.71281379  0.59996303  0.12457871     0.06230
C2663       C  0.68078586  0.59057582  0.12686765    -0.07860
H2664       H  0.64784553  0.54685558  0.09390007     0.11820
H2665       H  0.74631990  0.59684538  0.10956597     0.09350
H2666       H  0.67397469  0.59762790  0.13739815     0.09200
C2667       C  0.52115066  0.74436866  0.05457848     0.06240
C2668       C  0.49747296  0.74556348  0.04587972    -0.09910
C2669       C  0.96542542  0.72146028  0.04786707     0.03740
C2670       C  0.95658664  0.69674350  0.05873423    -0.08440
C2671       C  0.98011798  0.69561590  0.06791473     0.06230
C2672       C  0.51244194  0.71999282  0.06557937    -0.07860
H2673       H  0.50433590  0.76390151  0.03705041     0.11820
H2674       H  0.93152129  0.67809111  0.05957860     0.09350
H2675       H  0.53098511  0.71907604  0.07214113     0.09200
C2676       C  0.94155487  0.59604391  0.11723246     0.06240
C2677       C  0.94928495  0.61433911  0.10348732    -0.09910
C2678       C  0.93578027  0.63346246  0.10061469     0.03740
C2679       C  0.91490617  0.63395007  0.11155257    -0.08440
C2680       C  0.90813423  0.61658373  0.12533349     0.06230
C2681       C  0.92116159  0.59746934  0.12811376    -0.07860
H2682       H  0.96546840  0.61362058  0.09518732     0.11820
H2683       H  0.90497737  0.64909783  0.10964862     0.09350
H2684       H  0.91619079  0.58443021  0.13897731     0.09200
Fe2685     Fe  0.88904224  0.70043384  0.17978860     1.65780
Fe2686     Fe  0.82047864  0.70265028  0.18115680     1.73250
Fe2687     Fe  0.81655549  0.63101443  0.18252027     1.54420
O2688       O  0.84585901  0.62436951  0.16761564    -0.78570
O2689       O  0.79405153  0.67993965  0.20058173    -0.76870
O2690       O  0.88654375  0.67300476  0.16127299    -0.81070
O2691       O  0.89184924  0.66900171  0.19528674    -0.75930
O2692       O  0.78979961  0.62800772  0.16354943    -0.77700
O2693       O  0.85502211  0.73851120  0.19561333    -0.80450
C2694       C  0.87195828  0.64461195  0.20318047     1.00320
C2695       C  0.86998433  0.64290841  0.15936527     1.07760
O2696       O  0.84207012  0.67815029  0.18125340    -1.09430
O2697       O  0.84415466  0.72786198  0.16175581    -0.71860
O2698       O  0.89282248  0.73454806  0.16386120    -0.75350
O2699       O  0.84183893  0.63056575  0.20144360    -0.76040
C2700       C  0.87293128  0.74045188  0.15744727     0.99220
O2701       O  0.89589060  0.73033971  0.19807842    -0.74000
O2702       O  0.78383135  0.67018516  0.16626491    -0.79190
C2703       C  0.77826443  0.65038756  0.20396392     1.01840
C2704       C  0.77737739  0.64418727  0.15959370     1.07760
O2705       O  0.78271876  0.62976436  0.19744074    -0.74830
C2706       C  0.88181245  0.74518291  0.20151804     1.06060
Fe2707     Fe  0.65364477  0.79390253  0.01492876     1.65780
Fe2708     Fe  0.72206147  0.86772703  0.01549187     1.73250
Fe2709     Fe  0.64918707  0.86119478  0.01534359     1.54420
O2710       O  0.62418166  0.83627904  0.99601268    -0.78570
O2711       O  0.72287538  0.90142959  0.03058266    -0.76870
O2712       O  0.61780081  0.78790965  0.99957423    -0.81070
O2713       O  0.62529059  0.78817401  0.03364503    -0.75930
O2714       O  0.68000385  0.89849705  0.00071534    -0.77700
O2715       O  0.72623338  0.84406383  0.03428119    -0.80450
C2716       C  0.60867143  0.80077453  0.03612285     1.00320
C2717       C  0.61137397  0.80688448  0.99257921     1.07760
O2718       O  0.67496949  0.84091600  0.01536581    -1.09430
O2719       O  0.72799651  0.83828933  0.00013717    -0.71860
O2720       O  0.67945949  0.79499832  0.99606662    -0.75350
O2721       O  0.61395798  0.82646158  0.02959367    -0.76040
C2722       C  0.70895431  0.81251497  0.99290220     0.99220
O2723       O  0.68684820  0.79336475  0.02998943    -0.74000
O2724       O  0.72226212  0.89346616  0.99663043    -0.79190
C2725       C  0.70209972  0.90525926  0.03743279     1.01840
C2726       C  0.70553340  0.90572834  0.99354557     1.07760
O2727       O  0.67227273  0.88824543  0.03463619    -0.74830
C2728       C  0.71240717  0.81418520  0.03689136     1.06060
C2729       C  0.64432781  0.69293492  0.90181924     0.06240
C2730       C  0.64337947  0.71729951  0.89331272    -0.09910
C2731       C  0.61943886  0.70947785  0.88212064     0.03740
C2732       C  0.59654427  0.67739494  0.87911864    -0.08440
C2733       C  0.59756965  0.65288643  0.88702123     0.06230
C2734       C  0.62141358  0.66054702  0.89834884    -0.07860
H2735       H  0.66175054  0.74232631  0.89488774     0.11820
H2736       H  0.57870834  0.67144428  0.87008277     0.09350
H2737       H  0.62226280  0.64142034  0.90434540     0.09200
C2738       C  0.70666605  0.73746026  0.93503293     0.06240
C2739       C  0.72707842  0.72514864  0.93715447    -0.09910
C2740       C  0.74845655  0.73542490  0.94992991     0.03740
C2741       C  0.74895972  0.75730523  0.96058640    -0.08440
C2742       C  0.72869924  0.76926141  0.95859042     0.06230
C2743       C  0.70804334  0.75971038  0.94580406    -0.07860
H2744       H  0.72658594  0.70807267  0.92898886     0.11820
H2745       H  0.76457499  0.76440233  0.97068921     0.09350
H2746       H  0.69220752  0.76899213  0.94448780     0.09200
C2747       C  0.81580764  0.96287180  0.90129890     0.06240
C2748       C  0.84734509  0.96965921  0.89922686    -0.09910
C2749       C  0.85376486  0.95282096  0.88809091     0.03740
C2750       C  0.82890718  0.92938616  0.87892265    -0.08440
C2751       C  0.79772090  0.92297933  0.88058693     0.06230
C2752       C  0.79113973  0.93972689  0.89164228    -0.07860
H2753       H  0.86680873  0.98804422  0.90618622     0.11820
H2754       H  0.83409242  0.91706845  0.87001823     0.09350
H2755       H  0.76699081  0.93524200  0.89232333     0.09200
C2756       C  0.77394253  0.98091057  0.93417223     0.06240
C2757       C  0.78870565  0.51408130  0.93574407    -0.09910
C2758       C  0.78022515  0.52496458  0.94896069     0.03740
C2759       C  0.75997202  0.50290731  0.96013853    -0.08440
C2760       C  0.74628805  0.97044856  0.95881124     0.06230
C2761       C  0.75346168  0.95933859  0.94548030    -0.07860
H2762       H  0.80459179  0.53115488  0.92715087     0.11820
H2763       H  0.75426223  0.51131643  0.97056202     0.09350
H2764       H  0.74387236  0.93378307  0.94414162     0.09200
C2765       C  0.55807416  0.91489675  0.88855055     0.06240
C2766       C  0.58125102  0.91453464  0.87926060    -0.09910
C2767       C  0.58892648  0.89094342  0.88140856     0.03740
C2768       C  0.57370656  0.86781105  0.89307448    -0.08440
C2769       C  0.55080986  0.86832064  0.90282501     0.06230
C2770       C  0.54281566  0.89186173  0.90028390    -0.07860
H2771       H  0.59222996  0.93172455  0.86986804     0.11820
H2772       H  0.57899284  0.84889077  0.89407250     0.09350
H2773       H  0.52451180  0.89201961  0.90727751     0.09200
C2774       C  0.53422463  0.80735081  0.93584910     0.06240
C2775       C  0.00179919  0.78796849  0.93885365    -0.09910
C2776       C  0.99085463  0.76748613  0.95186955     0.03740
C2777       C  0.51243173  0.76691306  0.96196592    -0.08440
C2778       C  0.54526025  0.78636500  0.95915311     0.06230
C2779       C  0.55602871  0.80611467  0.94608297    -0.07860
H2780       H  0.98458533  0.78839750  0.93102200     0.11820
H2781       H  0.50422415  0.75200308  0.97229075     0.09350
H2782       H  0.58164511  0.82141368  0.94414103     0.09200
Fe2783     Fe  0.61754266  0.81536730  0.82731747     1.65780
Fe2784     Fe  0.68634577  0.81403702  0.82687128     1.73250
Fe2785     Fe  0.68958402  0.88526201  0.82542530     1.54420
O2786       O  0.66485782  0.88623444  0.80632385    -0.78570
O2787       O  0.72354105  0.84721643  0.84124162    -0.76870
O2788       O  0.61482254  0.84720709  0.81191864    -0.81070
O2789       O  0.61868406  0.84142521  0.84603403    -0.75930
O2790       O  0.72393600  0.88649222  0.81052242    -0.77700
O2791       O  0.66321534  0.79013966  0.84655051    -0.80450
C2792       C  0.63478999  0.87134389  0.84844856     1.00320
C2793       C  0.63483301  0.87182819  0.80415954     1.07760
O2794       O  0.66448536  0.83820681  0.82644535    -1.09430
O2795       O  0.65183864  0.77730392  0.81277596    -0.71860
O2796       O  0.61245640  0.78708224  0.80871823    -0.75350
O2797       O  0.65924971  0.89075131  0.84049088    -0.76040
C2798       C  0.62613300  0.77159088  0.80599243     0.99220
O2799       O  0.61369708  0.78062797  0.84303978    -0.74000
O2800       O  0.71181767  0.83598702  0.80727234    -0.79190
C2801       C  0.72955842  0.87292054  0.84802865     1.01840
C2802       C  0.72803205  0.86553654  0.80396434     1.07760
O2803       O  0.71603682  0.88824260  0.84448020    -0.74830
C2804       C  0.63396829  0.77619214  0.85020112     1.06060
C2805       C  0.91945300  0.60736980  0.72088249     0.06240
C2806       C  0.93969094  0.61653421  0.73404547    -0.09910
C2807       C  0.95942027  0.60356502  0.73639176     0.03740
C2808       C  0.95868455  0.58188152  0.72549854    -0.08440
C2809       C  0.93942101  0.57370487  0.71225370     0.06230
C2810       C  0.91967948  0.58620285  0.71001032    -0.07860
H2811       H  0.93983377  0.63319770  0.74237166     0.11820
H2812       H  0.97410632  0.57217261  0.72706043     0.09350
H2813       H  0.90504084  0.58006300  0.69958958     0.09200
C2814       C  0.52486994  0.64718833  0.76946281     0.06240
C2815       C  0.54802966  0.67955372  0.77270978    -0.09910
C2816       C  0.57205916  0.68726409  0.78390731     0.03740
C2817       C  0.57313376  0.66282099  0.79186269    -0.08440
C2818       C  0.54998420  0.63074039  0.78901422     0.06230
C2819       C  0.52579029  0.62289818  0.77800820    -0.07860
H2820       H  0.54713175  0.69864207  0.76669785     0.11820
H2821       H  0.59108921  0.66882223  0.80083945     0.09350
H2822       H  0.50717322  0.59789836  0.77665540     0.09200
Fe2823     Fe  0.51552326  0.54611078  0.65927343     1.65780
Fe2824     Fe  0.52147073  0.97817613  0.65573851     1.73250
Fe2825     Fe  0.94974901  0.97523199  0.65549134     1.54410
O2826       O  0.94178958  0.50672575  0.67035850    -0.78570
O2827       O  0.99881276  0.95424638  0.63625945    -0.76870
O2828       O  0.99075858  0.54879233  0.67514084    -0.81070
O2829       O  0.98370902  0.55071983  0.64119993    -0.75930
O2830       O  0.94795870  0.94864850  0.67427694    -0.77700
O2831       O  0.55426428  0.51342832  0.64324640    -0.80450
C2832       C  0.95847401  0.53016242  0.63398942     1.00320
C2833       C  0.96101666  0.53194865  0.67790634     1.07760
O2834       O  0.99686460  0.00097802  0.65639794    -1.09430
O2835       O  0.54603544  0.00108312  0.67544600    -0.71860
O2836       O  0.55022599  0.54955405  0.67484674    -0.75350
O2837       O  0.94456852  0.50020529  0.63634089    -0.76040
C2838       C  0.55577689  0.52931608  0.68118476     0.99220
O2839       O  0.54461976  0.55327034  0.64069988    -0.74000
O2840       O  0.98925350  0.94189412  0.67024730    -0.79190
C2841       C  0.96905531  0.93751291  0.63340891     1.01840
C2842       C  0.96390397  0.93554801  0.67741865     1.07760
O2843       O  0.94843576  0.94134961  0.64037626    -0.74830
C2844       C  0.56020427  0.53993252  0.63737191     1.06060
C2845       C  0.84841015  0.88057665  0.76938168     0.06240
C2846       C  0.81694367  0.87393366  0.77174047    -0.09910
C2847       C  0.81087646  0.89061079  0.78316263     0.03740
C2848       C  0.83601778  0.91362977  0.79234823    -0.08440
C2849       C  0.86709701  0.91987442  0.79043368     0.06230
C2850       C  0.87333726  0.90338879  0.77905976    -0.07860
H2851       H  0.79728006  0.85579764  0.76478336     0.11820
H2852       H  0.83113405  0.92577745  0.80146577     0.09350
H2853       H  0.89741147  0.90774331  0.77815668     0.09200
C2854       C  0.88601375  0.81735218  0.72156459     0.06240
C2855       C  0.90720361  0.83907871  0.71054587    -0.09910
C2856       C  0.91985994  0.87192621  0.71229432     0.03740
C2857       C  0.91175456  0.88337855  0.72521768    -0.08440
C2858       C  0.89016801  0.86207200  0.73633412     0.06230
C2859       C  0.87705754  0.82868005  0.73444734    -0.07860
H2860       H  0.91334027  0.83032212  0.70038625     0.11820
H2861       H  0.92166147  0.90901296  0.72641188     0.09350
H2862       H  0.86053571  0.81182719  0.74293021     0.09200
C2863       C  0.59450015  0.95767169  0.76586200     0.06240
C2864       C  0.57240527  0.95711430  0.77639223    -0.09910
C2865       C  0.56424512  0.93858560  0.78985886     0.03740
C2866       C  0.57719848  0.91945964  0.79272847    -0.08440
C2867       C  0.59885835  0.91913975  0.78228434     0.06230
C2868       C  0.60790500  0.93849891  0.76885546    -0.07860
H2869       H  0.56250273  0.97226654  0.77443044     0.11820
H2870       H  0.57123995  0.90560978  0.80338112     0.09350
H2871       H  0.62500745  0.93853756  0.76089754     0.09200
C2872       C  0.67980147  0.56868247  0.71903271     0.06240
C2873       C  0.65525120  0.56873783  0.71061763    -0.09910
C2874       C  0.62330175  0.54483501  0.71308028     0.03740
C2875       C  0.61569744  0.52083273  0.72414477    -0.08440
C2876       C  0.64006018  0.52089442  0.73313022     0.06230
C2877       C  0.67229671  0.54481852  0.73026282    -0.07860
H2878       H  0.66111660  0.58669383  0.70168734     0.11820
H2879       H  0.59085885  0.50174799  0.72530168     0.09350
H2880       H  0.69145627  0.54479626  0.73668695     0.09200
Fe2881     Fe  0.54709351  0.52259666  0.84365099     1.65780
Fe2882     Fe  0.98100722  0.52877620  0.84400995     1.73250
Fe2883     Fe  0.97263237  0.95434687  0.84676007     1.54410
O2884       O  0.50135946  0.94651989  0.83210510    -0.78570
O2885       O  0.95538950  0.50706214  0.86363268    -0.76870
O2886       O  0.54317199  0.49445150  0.82525149    -0.81070
O2887       O  0.54785278  0.99060611  0.85917879    -0.75930
O2888       O  0.94618568  0.95158297  0.82773448    -0.77700
O2889       O  0.51567210  0.56357610  0.85839047    -0.80450
C2890       C  0.52753247  0.96730320  0.86748852     1.00320
C2891       C  0.52535177  0.96431916  0.82358099     1.07760
O2892       O  0.50032282  0.50175085  0.84506796    -1.09430
O2893       O  0.00434755  0.55266416  0.82435264    -0.71860
O2894       O  0.55249750  0.55738370  0.82771906    -0.75350
O2895       O  0.49750193  0.95445700  0.86593495    -0.76040
C2896       C  0.53313796  0.56329653  0.82074740     0.98780
O2897       O  0.55442266  0.55253256  0.86189830    -0.74000
O2898       O  0.94234834  0.99516499  0.82978492    -0.79190
C2899       C  0.93649899  0.97720148  0.86768621     1.01840
C2900       C  0.93466881  0.96843426  0.82352035     1.07760
O2901       O  0.93966377  0.95539281  0.86154180    -0.74830
C2902       C  0.54152340  0.56870763  0.86485834     1.06060
Fe2903     Fe  0.78755140  0.65024893  0.49206117     1.65780
Fe2904     Fe  0.85558975  0.64742839  0.49148110     1.73250
Fe2905     Fe  0.86017359  0.71940285  0.48982796     1.54420
O2906       O  0.83525784  0.72054708  0.47087462    -0.78570
O2907       O  0.89242746  0.67977333  0.50613716    -0.76870
O2908       O  0.78517999  0.68233178  0.47687614    -0.81070
O2909       O  0.78972324  0.67687333  0.51078982    -0.75930
O2910       O  0.89362138  0.72002782  0.47477895    -0.77700
O2911       O  0.83169055  0.62289110  0.51096817    -0.80450
C2912       C  0.80637813  0.70688830  0.51297467     1.00320
C2913       C  0.80519843  0.70671228  0.46904047     1.07760
O2914       O  0.83445456  0.67232526  0.49104980    -1.09430
O2915       O  0.82109577  0.61155650  0.47717481    -0.71860
O2916       O  0.78181681  0.62169672  0.47345495    -0.75350
O2917       O  0.83073988  0.72575898  0.50488750    -0.76040
C2918       C  0.79532806  0.60608060  0.47057652     0.99220
O2919       O  0.78281480  0.61505463  0.50756478    -0.74000
O2920       O  0.88180552  0.66953764  0.47202623    -0.79190
C2921       C  0.89917889  0.70589199  0.51270535     1.01840
C2922       C  0.89756082  0.69892916  0.46836499     1.07760
O2923       O  0.88690460  0.72220371  0.50876694    -0.74830
C2924       C  0.80240800  0.60942449  0.51451845     1.06060
C2925       C  0.73133984  0.70537533  0.56996664     0.06240
C2926       C  0.71783432  0.72458840  0.56736764    -0.09910
C2927       C  0.72772982  0.74547117  0.55448816     0.03740
C2928       C  0.75045927  0.74677973  0.54421700    -0.08440
C2929       C  0.76358296  0.72769822  0.54671218     0.06230
C2930       C  0.75441187  0.70747763  0.55959596    -0.07860
H2931       H  0.70005288  0.72350008  0.57521111     0.11820
H2932       H  0.75720138  0.76194428  0.53398683     0.09350
H2933       H  0.76450723  0.69241148  0.56124716     0.09200
C2934       C  0.68633877  0.64292841  0.60269915     0.06240
C2935       C  0.65394837  0.61977475  0.60567003    -0.09910
C2936       C  0.64589376  0.59599495  0.61698655     0.03740
C2937       C  0.67007474  0.59520447  0.62540697    -0.08440
C2938       C  0.70226936  0.61834315  0.62281874     0.06230
C2939       C  0.71039732  0.64226223  0.61162154    -0.07860
H2940       H  0.63506284  0.62041506  0.59929567     0.11820
H2941       H  0.66376676  0.57736734  0.63444681     0.09350
H2942       H  0.73540851  0.66082939  0.61036096     0.09200
C2943       C  0.51995647  0.78055399  0.55509108     0.06240
C2944       C  0.99662346  0.75826765  0.54462995    -0.09910
C2945       C  0.96503115  0.75008541  0.54702361     0.03740
C2946       C  0.95726837  0.76182505  0.55999863    -0.08440
C2947       C  0.98122545  0.78189981  0.57075324     0.06230
C2948       C  0.51322934  0.79601898  0.56690499    -0.07860
H2949       H  0.00261560  0.74983081  0.53430423     0.11820
H2950       H  0.93255950  0.75513053  0.56172119     0.09350
H2951       H  0.53251929  0.81373164  0.57417970     0.09200
C2952       C  0.94032267  0.81151492  0.59844097     0.06240
C2953       C  0.94876317  0.84359568  0.60046240    -0.09910
C2954       C  0.93809522  0.85232822  0.61355763     0.03740
C2955       C  0.91843330  0.82898161  0.62440355    -0.08440
C2956       C  0.90962312  0.79699495  0.62240081     0.06230
C2957       C  0.92076363  0.78824385  0.60948079    -0.07860
H2958       H  0.96400221  0.86168650  0.59205622     0.11820
H2959       H  0.91056284  0.83586933  0.63462785     0.09350
H2960       H  0.91406382  0.76344093  0.60793911     0.09200
C2961       C  0.76214800  0.98275085  0.55382579     0.06240
C2962       C  0.76019521  0.50897182  0.54376906    -0.09910
C2963       C  0.78367499  0.54109264  0.54639595     0.03740
C2964       C  0.80692930  0.54907812  0.55793476    -0.08440
C2965       C  0.80666371  0.52495481  0.56714087     0.06230
C2966       C  0.78595822  0.99100421  0.56519558    -0.07860
H2967       H  0.74283816  0.50278273  0.53447219     0.11820
H2968       H  0.82576955  0.57401878  0.55926438     0.09350
H2969       H  0.78675136  0.97222294  0.57157541     0.09200
C2970       C  0.90928939  0.56648859  0.61485064     0.06240
C2971       C  0.88814865  0.55695501  0.60210966    -0.09910
C2972       C  0.86856910  0.57011743  0.60004086     0.03740
C2973       C  0.87070094  0.59276825  0.61075583    -0.08440
C2974       C  0.89130693  0.60171756  0.62354877     0.06230
C2975       C  0.91066965  0.58871698  0.62555504    -0.07860
H2976       H  0.88711354  0.53959789  0.59395188     0.11820
H2977       H  0.85537439  0.60264291  0.60944569     0.09350
H2978       H  0.92609482  0.59514224  0.63570137     0.09200
Fe2979     Fe  0.87883654  0.69571080  0.68100162     1.65780
Fe2980     Fe  0.80584714  0.68856187  0.67826928     1.73250
Fe2981     Fe  0.81144775  0.62198303  0.67768662     1.54410
O2982       O  0.83915291  0.62586553  0.65917773    -0.78570
O2983       O  0.77004209  0.65288115  0.69228871    -0.76870
O2984       O  0.88719832  0.66701756  0.66618151    -0.81070
O2985       O  0.87997613  0.67110287  0.70010664    -0.75930
O2986       O  0.77605322  0.61610981  0.66182222    -0.77700
O2987       O  0.82645900  0.71533515  0.69790472    -0.80450
C2988       C  0.86776385  0.64107473  0.70137229     1.00320
C2989       C  0.86926067  0.64296335  0.65760607     1.07760
O2990       O  0.83196633  0.66876609  0.67911801    -1.09430
O2991       O  0.83811139  0.72593389  0.66371337    -0.71860
O2992       O  0.88154958  0.72192173  0.66190917    -0.75350
O2993       O  0.84415012  0.62072506  0.69310826    -0.76040
C2994       C  0.86468004  0.73325430  0.65746624     0.99220
O2995       O  0.87749177  0.72880956  0.69582596    -0.74000
O2996       O  0.78256714  0.66446577  0.65855292    -0.79190
C2997       C  0.76511753  0.62710329  0.69872297     1.01840
C2998       C  0.76991740  0.63532570  0.65482505     1.07760
O2999       O  0.78181223  0.61466127  0.69599911    -0.74830
C3000       C  0.85567164  0.73219635  0.70181456     1.06060
C3001       C  0.88958125  0.62127516  0.63547144    -0.10170
C3002       C  0.88318833  0.63377126  0.64568589    -0.11730
C3003       C  0.83110970  0.53295544  0.57953639    -0.13330
C3004       C  0.84564255  0.56143335  0.58694285    -0.28500
H3005       H  0.83562724  0.51436390  0.58327525     0.15700
H3006       H  0.83854549  0.57861110  0.58417123     0.16270
C3007       C  0.87683804  0.75541776  0.64470627    -0.10170
C3008       C  0.89056092  0.77378852  0.63414590    -0.11730
C3009       C  0.97297718  0.79404485  0.58468421    -0.13330
C3010       C  0.95030668  0.80192947  0.58434157    -0.28500
H3011       H  0.98604065  0.79694789  0.59541432     0.15700
H3012       H  0.93884180  0.80167495  0.57346093     0.16270
C3013       C  0.72666520  0.61968359  0.63288355    -0.10170
C3014       C  0.74671725  0.62407302  0.64245490    -0.11730
C3015       C  0.72280501  0.68278720  0.58320967    -0.13330
C3016       C  0.69431839  0.66784499  0.59051918    -0.28500
H3017       H  0.74017646  0.67600970  0.58606499     0.15700
H3018       H  0.67562746  0.67218954  0.58674974     0.16270
C3019       C  0.78353341  0.72585070  0.53513737    -0.10170
C3020       C  0.79637881  0.71973547  0.52502843    -0.11730
C3021       C  0.79125169  0.58591234  0.52664745    -0.10170
C3022       C  0.78606067  0.56558857  0.53614441    -0.11730
C3023       C  0.94110291  0.73139150  0.53550907    -0.10170
C3024       C  0.92193877  0.71808611  0.52518882    -0.11730
C3025       C  0.73788563  0.60963918  0.70870103    -0.10170
C3026       C  0.71252303  0.59166984  0.71484983    -0.11730
C3027       C  0.53416260  0.95003311  0.81169530    -0.10170
C3028       C  0.54575841  0.94240988  0.80158237    -0.11730
C3029       C  0.60251228  0.97896328  0.75211893    -0.13330
C3030       C  0.63152844  0.99484525  0.74530954    -0.28500
H3031       H  0.58452819  0.98455429  0.74870356     0.15700
H3032       H  0.65053420  0.99155848  0.74971757     0.16270
C3033       C  0.87298902  0.78363859  0.71861928    -0.10170
C3034       C  0.86464921  0.75818004  0.71250033    -0.11730
C3035       C  0.89181870  0.94100273  0.80118940    -0.10170
C3036       C  0.91151422  0.95582574  0.81115289    -0.11730
C3037       C  0.85465104  0.86311756  0.75701004    -0.13330
C3038       C  0.88320693  0.87641214  0.74979885    -0.28500
H3039       H  0.83482553  0.84017401  0.75296598     0.15700
H3040       H  0.90182407  0.90074686  0.75284953     0.16270
C3041       C  0.57874490  0.53915384  0.69357336    -0.10170
C3042       C  0.59868856  0.54314245  0.70310106    -0.11730
C3043       C  0.95223794  0.91240977  0.68970823    -0.10170
C3044       C  0.93905284  0.89372381  0.70017899    -0.11730
C3045       C  0.94327949  0.54155653  0.62375365    -0.10170
C3046       C  0.92810086  0.55213649  0.61799409    -0.11730
C3047       C  0.58740137  0.55697998  0.62736816    -0.10170
C3048       C  0.61299887  0.57406940  0.62125514    -0.11730
C3049       C  0.95805503  0.91102867  0.62291039    -0.10170
C3050       C  0.94904732  0.88538008  0.61692073    -0.11730
C3051       C  0.54420342  0.58613631  0.80834088    -0.10170
C3052       C  0.54866645  0.60616470  0.79881784    -0.11730
C3053       C  0.88334128  0.62986218  0.71158058    -0.10170
C3054       C  0.89947968  0.62048440  0.71754219    -0.11730
C3055       C  0.94884274  0.54253646  0.69006662    -0.10170
C3056       C  0.94245035  0.55499906  0.70029988    -0.11730
C3057       C  0.98092046  0.61104054  0.75001744    -0.13330
C3058       C  0.99928443  0.64058557  0.75621941    -0.28500
H3059       H  0.98447209  0.59182469  0.75364635     0.15700
H3060       H  0.49522089  0.65817151  0.75390934     0.16270
C3061       C  0.75403838  0.87561560  0.79329990    -0.10170
C3062       C  0.77873367  0.88231591  0.78695345    -0.11730
C3063       C  0.62299495  0.88570865  0.79327163    -0.10170
C3064       C  0.61295111  0.90046151  0.78649568    -0.11730
C3065       C  0.61033896  0.74493045  0.79550447    -0.10170
C3066       C  0.59372042  0.71990160  0.78875562    -0.11730
C3067       C  0.53886943  0.95279568  0.87814793    -0.10170
C3068       C  0.54766698  0.93668446  0.88452917    -0.11730
C3069       C  0.62375633  0.88321433  0.86058478    -0.10170
C3070       C  0.60974168  0.88839041  0.87051762    -0.11730
C3071       C  0.54789531  0.82928419  0.92232782    -0.13330
C3072       C  0.53429018  0.84409060  0.91537850    -0.28500
H3073       H  0.57190960  0.83573983  0.91892950     0.15700
H3074       H  0.51167134  0.84016267  0.91971785     0.16270
C3075       C  0.88603964  0.96147239  0.88456058    -0.10170
C3076       C  0.91084067  0.96826088  0.87836323    -0.11730
C3077       C  0.77315592  0.90138497  0.86992242    -0.10170
C3078       C  0.75319702  0.88616791  0.86014178    -0.11730
C3079       C  0.78052828  0.96702344  0.92047198    -0.13330
C3080       C  0.80925145  0.98031942  0.91348162    -0.28500
H3081       H  0.76180173  0.94282895  0.91728752     0.15700
H3082       H  0.82906454  0.00305548  0.91774358     0.16270
C3083       C  0.57567185  0.62026861  0.88210459    -0.10170
C3084       C  0.55838523  0.59539949  0.87531153    -0.11730
C3085       C  0.62043318  0.73398903  0.87233417    -0.10170
C3086       C  0.62390273  0.75353096  0.86270069    -0.11730
C3087       C  0.66935413  0.70072767  0.91403164    -0.13330
C3088       C  0.68380907  0.72886117  0.92179846    -0.28500
H3089       H  0.67426433  0.68220994  0.91739907     0.15700
H3090       H  0.67642762  0.74591810  0.91931020     0.16270
C3091       C  0.71641626  0.92905715  0.98138543    -0.10170
C3092       C  0.72852210  0.94829009  0.97104448    -0.11730
C3093       C  0.72096483  0.80193516  0.98063930    -0.10170
C3094       C  0.72667185  0.78888452  0.97040905    -0.11730
C3095       C  0.56813276  0.78872643  0.97046041    -0.10170
C3096       C  0.58792873  0.79477465  0.98039525    -0.11730
C3097       C  0.89077792  0.62141395  0.13729500    -0.10170
C3098       C  0.87952906  0.62939360  0.14742041    -0.11730
C3099       C  0.55439249  0.76649100  0.05101674    -0.10170
C3100       C  0.58075558  0.78358949  0.04564778    -0.11730
C3101       C  0.97184640  0.67030647  0.07990822    -0.13330
C3102       C  0.94285092  0.65399123  0.08666754    -0.28500
H3103       H  0.99101192  0.66730880  0.08436155     0.15700
H3104       H  0.92451101  0.65908245  0.08326338     0.16270
C3105       C  0.73620040  0.61850131  0.13640373    -0.10170
C3106       C  0.75488145  0.63193397  0.14693144    -0.11730
C3107       C  0.71304305  0.93202298  0.04777088    -0.10170
C3108       C  0.72207691  0.95776619  0.05368096    -0.11730
C3109       C  0.70760199  0.56103679  0.08584441    -0.13330
C3110       C  0.71793390  0.54027780  0.08633310    -0.28500
H3111       H  0.70536271  0.57053495  0.07480733     0.15700
H3112       H  0.71733527  0.52884224  0.09728040     0.16270
C3113       C  0.88308948  0.76310618  0.14495032    -0.10170
C3114       C  0.88739837  0.78260515  0.13513143    -0.11730
C3115       C  0.72795100  0.80312972  0.04712200    -0.10170
C3116       C  0.74316410  0.79263358  0.05294656    -0.11730
C3117       C  0.82542416  0.78349218  0.08430023    -0.13330
C3118       C  0.84027783  0.81233918  0.09138093    -0.28500
H3119       H  0.83237796  0.76629879  0.08728868     0.15700
H3120       H  0.83577362  0.83079408  0.08738500     0.16270
C3121       C  0.78171700  0.72340505  0.03570737    -0.10170
C3122       C  0.78773038  0.71083607  0.02536646    -0.11730
C3123       C  0.79180248  0.58758766  0.02591713    -0.10170
C3124       C  0.77842978  0.56921999  0.03650835    -0.11730
C3125       C  0.92207542  0.71733902  0.02786386    -0.10170
C3126       C  0.94167012  0.72092709  0.03756590    -0.11730
C3127       C  0.93119431  0.73167810  0.96157516    -0.10170
C3128       C  0.95721470  0.74792162  0.95563221    -0.11730
C3129       C  0.80147978  0.58406814  0.95816885    -0.10170
C3130       C  0.79292292  0.55856665  0.95204685    -0.11730
C3131       C  0.78524266  0.71355301  0.95913221    -0.10170
C3132       C  0.76881565  0.72265618  0.95319321    -0.11730
C3133       C  0.89828933  0.77240923  0.21173028    -0.10170
C3134       C  0.91427238  0.79825924  0.21795709    -0.11730
C3135       C  0.55525332  0.95160209  0.30301644    -0.10170
C3136       C  0.55010843  0.96558558  0.31301011    -0.11730
C3137       C  0.49436661  0.88862619  0.25146585    -0.13330
C3138       C  0.51017977  0.87575554  0.25807663    -0.28500
H3139       H  0.50014577  0.91237872  0.25505498     0.15700
H3140       H  0.50683472  0.85347164  0.25350485     0.16270
C3141       C  0.72681382  0.62959916  0.22097715    -0.10170
C3142       C  0.75226099  0.63938564  0.21469248    -0.11730
C3143       C  0.55365441  0.59593168  0.31411429    -0.10170
C3144       C  0.56736913  0.61462123  0.30367188    -0.11730
C3145       C  0.62570226  0.64210762  0.25347773    -0.13330
C3146       C  0.64314514  0.62805080  0.25437918    -0.28500
H3147       H  0.62001556  0.64799639  0.24220431     0.15700
H3148       H  0.65160446  0.62511588  0.26559617     0.16270
C3149       C  0.95977431  0.92932697  0.19363310    -0.10170
C3150       C  0.95372289  0.90966456  0.20360709    -0.11730
C3151       C  0.59656228  0.55958134  0.19294666    -0.10170
C3152       C  0.61539443  0.57228738  0.20346885    -0.11730
C3153       C  0.93393056  0.89558819  0.12169064    -0.10170
C3154       C  0.95099963  0.92153564  0.12757798    -0.11730
C3155       C  0.59882011  0.55075433  0.12570946    -0.10170
C3156       C  0.62426605  0.55980877  0.11953940    -0.11730
C3157       C  0.96582775  0.56226078  0.12766490    -0.10170
C3158       C  0.95563648  0.57720864  0.12119279    -0.11730
C3159       C  0.89222868  0.61320348  0.21943829    -0.10170
C3160       C  0.88391124  0.63010280  0.21348256    -0.11730
C3161       C  0.95082085  0.56162414  0.20439010    -0.10170
C3162       C  0.96509545  0.55652150  0.19456451    -0.11730
C3163       C  0.92092608  0.96537667  0.31040016    -0.10170
C3164       C  0.90146127  0.96147755  0.30062935    -0.11730
C3165       C  0.88367408  0.49840966  0.25427461    -0.13330
C3166       C  0.87197345  0.51547116  0.24785796    -0.28500
H3167       H  0.90725429  0.50357084  0.25084511     0.15700
H3168       H  0.84987577  0.51267722  0.25229740     0.16270
C3169       C  0.78838926  0.91682151  0.28902044    -0.10170
C3170       C  0.76318758  0.89960230  0.29542557    -0.11730
C3171       C  0.60479027  0.89118028  0.28771000    -0.10170
C3172       C  0.62105963  0.88208622  0.29364010    -0.11730
C3173       C  0.62427448  0.72570325  0.28554771    -0.10170
C3174       C  0.63351126  0.75147281  0.29142335    -0.11730
C3175       C  0.56917297  0.95447026  0.38574878    -0.10170
C3176       C  0.55430653  0.96508709  0.37960209    -0.11730
C3177       C  0.61025330  0.88691502  0.36916164    -0.10170
C3178       C  0.61816910  0.87524175  0.35920844    -0.11730
C3179       C  0.76218568  0.55385187  0.45396527    -0.10170
C3180       C  0.77917537  0.57930639  0.46024601    -0.11730
C3181       C  0.64738376  0.94160825  0.41902247    -0.13330
C3182       C  0.66410695  0.97058354  0.42588364    -0.28500
H3183       H  0.65252649  0.92316838  0.42212884     0.15700
H3184       H  0.66110370  0.98993564  0.42173616     0.16270
C3185       C  0.94791233  0.71680170  0.45108352    -0.10170
C3186       C  0.92298559  0.70898163  0.45742897    -0.11730
C3187       C  0.54720105  0.62169060  0.38717433    -0.10170
C3188       C  0.53949994  0.59616789  0.38136707    -0.11730
C3189       C  0.62475146  0.75065383  0.35780098    -0.10170
C3190       C  0.61105099  0.73149815  0.36801778    -0.11730
C3191       C  0.55075780  0.71334834  0.41612284    -0.13330
C3192       C  0.52222518  0.69879473  0.42336942    -0.28500
H3193       H  0.56827982  0.73820463  0.41896967     0.15700
H3194       H  0.50317117  0.67520536  0.41956464     0.16270
C3195       C  0.78342050  0.73634473  0.45225696    -0.10170
C3196       C  0.79331619  0.72107399  0.45857035    -0.11730
C3197       C  0.88671525  0.93540433  0.38398305    -0.10170
C3198       C  0.91185049  0.95201875  0.37737031    -0.11730
C3199       C  0.77279168  0.88634295  0.37245936    -0.10170
C3200       C  0.75320494  0.88119108  0.36252588    -0.11730
C3201       C  0.80655210  0.84573421  0.41737155    -0.13330
C3202       C  0.77910597  0.81686682  0.41801454    -0.28500
H3203       H  0.82378384  0.85282391  0.42683150     0.15700
H3204       H  0.76171869  0.80864229  0.40862657     0.16270
C3205       C  0.55781347  0.77459120  0.46797528    -0.10170
C3206       C  0.57776394  0.78855813  0.47792108    -0.11730
C3207       C  0.71450949  0.93795674  0.46699138    -0.10170
C3208       C  0.71036863  0.91803797  0.47652523    -0.11730
C3209       C  0.70392838  0.78552517  0.47685452    -0.10170
C3210       C  0.71710297  0.78001115  0.46662402    -0.11730
C3211       C  0.74032251  0.94984774  0.54945209    -0.10170
C3212       C  0.72324972  0.92448285  0.54306619    -0.11730
C3213       C  0.57697597  0.79623850  0.54498107    -0.10170
C3214       C  0.55228732  0.78941274  0.55136920    -0.11730
C3215       C  0.70398383  0.77970903  0.54420275    -0.10170
C3216       C  0.71363037  0.76430622  0.55066732    -0.11730
loop_ 
_geom_bond_atom_site_label_1 
_geom_bond_atom_site_label_2 
_geom_bond_distance 
_geom_bond_site_symmetry_2 
_ccdc_geom_bond_type 
Fe1          O17   2.041       .  S
Fe1           O7   2.085       .  S
Fe1          O14   2.082       .  S
Fe1           O6   2.047       .  S
Fe1          O12   1.963       .  S
Fe2           O5   2.045       .  S
Fe2           O9   2.087       .  S
Fe2          O13   2.052       .  S
Fe2          O18   2.085       .  S
Fe2          O12   1.962       .  S
Fe3          O21   2.079       .  S
Fe3           O8   2.048       .  S
Fe3          O15   2.043       .  S
Fe3           O4   2.077       .  S
Fe3          O12   1.963       .  S
O4           C11   1.270       .  A
O5           C19   1.263       .  A
O6           C11   1.264       .  A
O7           C10   1.270       .  A
O8           C20   1.265       .  A
O9           C22   1.271       .  A
C10          O15   1.264       .  A
C10         C797   1.430       .  S
C11         C803   1.429       .  S
O13          C16   1.265       .  A
O14          C16   1.271       .  A
C16         C801   1.435       .  S
O17          C22   1.263       .  A
O18          C20   1.273       .  A
C19          O21   1.268       .  A
C19         C796   1.430       .  S
C20         C800   1.433       .  S
C22         C794   1.431       .  S
C23         C785   1.441       .  S
C23          C24   1.396       .  A
C23          C28   1.407       .  A
C24          C25   1.392       .  A
C24          H29   1.085       .  S
C25         C787   1.439       .  S
C25          C26   1.400       .  A
C26          C27   1.415       .  A
C26          H30   1.081       .  S
C27          C28   1.412       .  A
C27         C789   1.500       .  S
C28          H31   1.084       .  S
C32         C783   1.443       .  S
C32          C33   1.399       .  A
C32          C37   1.412       .  A
C33          C34   1.392       .  A
C33          H38   1.085       .  S
C34         C798   1.436       .  S
C34          C35   1.395       .  A
C35          C36   1.404       .  A
C35          H39   1.085       .  S
C36          C37   1.415       .  A
C36         C790   1.486       .  S
C37          H40   1.083       .  S
C41         C775   1.443       .  S
C41          C42   1.412       .  A
C41          C46   1.400       .  A
C42          C43   1.414       .  A
C42          H47   1.083       .  S
C43          C44   1.404       .  A
C43         C779   1.485       .  S
C44          C45   1.395       .  A
C44          H48   1.085       .  S
C45         C778   1.436       .  S
C45          C46   1.393       .  A
C46          H49   1.085       .  S
C50         C773   1.440       .  S
C50          C51   1.409       .  A
C50        C1663   1.396       .  A
C51        C1660   1.412       .  A
C51          H56   1.084       .  S
C52          C53   1.412       .  A
C52        C1659   1.411   1_455  A
C52         C780   1.495       .  S
C53          C54   1.398       .  A
C53          H57   1.083       .  S
C54         C793   1.437       .  S
C54          C55   1.392       .  A
C55        C1658   1.397   1_455  A
C55          H58   1.085   1_455  S
C59         C767   1.435       .  S
C59          C60   1.396   1_545  A
C59          C64   1.404       .  A
C60         C865   1.392       .  A
C60          H65   1.085   1_565  S
C61         C795   1.435       .  S
C61          C62   1.397       .  A
C61         C864   1.396       .  A
C62          C63   1.401       .  A
C62          H66   1.085       .  S
C63         C868   1.404       .  A
C63         C770   1.468       .  S
C64         C867   1.408   1_545  A
C64          H67   1.084       .  S
C68         C763   1.435       .  S
C68          C69   1.401       .  A
C68          C73   1.400       .  A
C69          C70   1.404       .  A
C69          H74   1.084       .  S
C70          C71   1.408       .  A
C70         C769   1.480       .  S
C71          C72   1.400       .  A
C71          H75   1.083       .  S
C72         C765   1.438       .  S
C72          C73   1.396       .  A
C73          H76   1.085       .  S
Fe77         O93   2.051       .  S
Fe77         O83   2.091       .  S
Fe77         O90   2.091       .  S
Fe77         O82   2.044       .  S
Fe77         O88   1.961       .  S
Fe78         O81   2.050       .  S
Fe78         O85   2.084       .  S
Fe78         O89   2.041       .  S
Fe78         O94   2.086       .  S
Fe78         O88   1.962       .  S
Fe79         O97   2.083       .  S
Fe79         O84   2.043       .  S
Fe79         O91   2.051       .  S
Fe79         O80   2.085       .  S
Fe79         O88   1.963       .  S
O80          C87   1.269       .  A
O81          C95   1.265       .  A
O82          C87   1.262       .  A
O83          C86   1.274       .  A
O84          C96   1.264       .  A
O85          C98   1.271       .  A
C86          O91   1.266       .  A
C86         C760   1.436       .  S
C87         C766   1.433       .  S
O89          C92   1.263       .  A
O90          C92   1.272       .  A
C92         C788   1.432       .  S
O93          C98   1.265       .  A
O94          C96   1.271       .  A
C95          O97   1.271       .  A
C95         C762   1.434       .  S
C96         C777   1.430       .  S
C98         C758   1.435       .  S
C99         C757   1.441       .  S
C99         C100   1.405       .  A
C99         C104   1.398       .  A
C100        C101   1.409       .  A
C100        H105   1.084       .  S
C101        C102   1.413       .  A
C101       C1557   1.494       .  S
C102        C103   1.400       .  A
C102        H106   1.082       .  S
C103        C752   1.440       .  S
C103        C104   1.395       .  A
C104        H107   1.085       .  S
C108        C109   1.404       .  A
C108        C113   1.414       .  A
C108        C754   1.487       .  S
C109        C110   1.396       .  A
C109        H114   1.085       .  S
C110        C749   1.436       .  S
C110        C111   1.393       .  A
C111        C112   1.399       .  A
C111        H115   1.085       .  S
C112        C747   1.442       .  S
C112        C113   1.410       .  A
C113        H116   1.083       .  S
Fe117       O123   2.052       .  S
Fe117       O122   2.089       .  S
Fe117       O937   2.089       .  S
Fe117       O934   2.045       .  S
Fe117      O2540   1.961       .  S
Fe118       O121   2.080       .  S
Fe118       O129   2.082       .  S
Fe118       O134   2.046       .  S
Fe118      O1733   2.053       .  S
Fe118       O128   1.969       .  S
Fe119       O131   2.088   1_455  S
Fe119       O941   2.051       .  S
Fe119       O928   2.087       .  S
Fe119      O1728   2.042       .  S
Fe119       O932   1.960       .  S
O120      Fe1727   2.043       .  S
O120        C127   1.263       .  A
O121        C135   1.270       .  A
O122        C127   1.271       .  A
O123        C126   1.267       .  A
O124       Fe923   2.085   1_545  S
O124        C136   1.271       .  A
O125      Fe1726   2.054       .  S
O125        C138   1.265       .  A
C126       O1739   1.273       .  A
C126        C742   1.436       .  S
C127        C737   1.434       .  S
O128      Fe2529   1.965   1_445  S
O128       Fe923   1.964   1_545  S
O129       C1740   1.270   1_455  A
O130       Fe921   2.046   1_545  S
O130        C132   1.265       .  A
O131       C1734   1.272       .  A
C132       O1737   1.270       .  A
C132        C750   1.431       .  S
O133       Fe921   2.078   1_545  S
O133        C138   1.270       .  A
O134        C136   1.263       .  A
C135        O137   1.265       .  A
C135        C743   1.435       .  S
C136        C739   1.433       .  S
O137       Fe923   2.053   1_545  S
C138        C745   1.434       .  S
C139        C140   1.406       .  A
C139        C144   1.407       .  A
C139        C733   1.478       .  S
C140        C141   1.403       .  A
C140        H145   1.084       .  S
C141        C761   1.439       .  S
C141        C142   1.399       .  A
C142        C143   1.396       .  A
C142        H146   1.085       .  S
C143        C732   1.440       .  S
C143        C144   1.401       .  A
C144        H147   1.084       .  S
C148        C149   1.407       .  A
C148        C153   1.407       .  A
C148        C734   1.479       .  S
C149        C150   1.404       .  A
C149        H154   1.084       .  S
C150        C729   1.439       .  S
C150        C151   1.399       .  A
C151        C152   1.395       .  A
C151        H155   1.085       .  S
C152        C740   1.438       .  S
C152        C153   1.400       .  A
C153        H156   1.084       .  S
C157        C158   1.413       .  A
C157        C162   1.403       .  A
C157        C726   1.484       .  S
C158        C159   1.409       .  A
C158        H163   1.083       .  S
C159        C759   1.440       .  S
C159        C160   1.399       .  A
C160        C161   1.393       .  A
C160        H164   1.085       .  S
C161        C723   1.434       .  S
C161        C162   1.395       .  A
C162        H165   1.085       .  S
C166        C167   1.411       .  A
C166        C171   1.408       .  A
C166       C2333   1.491       .  S
C167        C168   1.400       .  A
C167        H172   1.082       .  S
C168        C738   1.440       .  S
C168        C169   1.396       .  A
C169        C170   1.399       .  A
C169        H173   1.085       .  S
C170        C722   1.441       .  S
C170        C171   1.404       .  A
C171        H174   1.084       .  S
Fe175       O181   2.038       .  S
Fe175       O180   2.093   1_545  S
Fe175      O1799   2.093       .  S
Fe175      O1796   2.046       .  S
Fe175      O1794   1.959       .  S
Fe176       O179   2.097       .  S
Fe176       O183   2.043       .  S
Fe176       O187   2.097       .  S
Fe176       O996   2.051       .  S
Fe176       O186   1.961       .  S
Fe177       O189   2.091       .  S
Fe177       O178   2.049       .  S
Fe177      O1803   2.043       .  S
Fe177      O1790   2.086       .  S
Fe177      O2598   1.959       .  S
O178        C185   1.266       .  A
O179        C997   1.274   1_545  A
O180        C989   1.274       .  A
O181        C988   1.262   1_545  A
O182      Fe1785   2.073   1_455  S
O182        C194   1.269       .  A
O183        C196   1.263       .  A
C184        O189   1.270       .  A
C184        O985   1.261       .  A
C184        C751   1.434       .  S
C185        O984   1.275       .  A
C185        C786   1.436       .  S
O186      Fe1783   1.958   1_455  S
O186      Fe2589   1.960   1_445  S
O187        C190   1.274       .  A
O188      Fe1783   2.046   1_455  S
O188        C190   1.263       .  A
C190        C776   1.438       .  S
O191      Fe1783   2.092   1_455  S
O191        C196   1.273       .  A
O192       Fe980   2.051       .  S
O192        C194   1.265       .  A
C193        O195   1.265       .  A
C193        O983   1.270       .  A
C193        C724   1.429       .  S
C194        C764   1.429       .  S
O195      Fe1785   2.045   1_455  S
C196        C731   1.434       .  S
Fe197       O213   2.042   1_556  S
Fe197       O203   2.089   1_556  S
Fe197       O210   2.089       .  S
Fe197       O202   2.051       .  S
Fe197       O208   1.964       .  S
Fe198       O201   2.041   1_556  S
Fe198       O205   2.094   1_556  S
Fe198       O209   2.052       .  S
Fe198       O214   2.092       .  S
Fe198       O208   1.960       .  S
Fe199       O217   2.095   1_556  S
Fe199       O204   2.056       .  S
Fe199       O211   2.045   1_556  S
Fe199       O200   2.095       .  S
Fe199       O208   1.962       .  S
O200        C207   1.274       .  A
O201        C215   1.262       .  A
O202        C207   1.265       .  A
O203        C206   1.271       .  A
O204        C216   1.267       .  A
O205        C218   1.273       .  A
C206        O211   1.264       .  A
C206        C710   1.433       .  S
C207        C719   1.439       .  S
O209        C212   1.265       .  A
O210        C212   1.272       .  A
C212        C717   1.438       .  S
O213        C218   1.263       .  A
O214        C216   1.274       .  A
C215        O217   1.272       .  A
C215        C713   1.436       .  S
C216        C715   1.440       .  S
C218        C711   1.435       .  S
C219        C704   1.441       .  S
C219        C220   1.400       .  A
C219        C224   1.408       .  A
C220        C221   1.395       .  A
C220        H225   1.085       .  S
C221        C709   1.438       .  S
C221        C222   1.397       .  A
C222        C223   1.404       .  A
C222        H226   1.085       .  S
C223        C224   1.413       .  A
C223        C705   1.486       .  S
C224        H227   1.083       .  S
C228        C741   1.442       .  S
C228        C229   1.404       .  A
C228        C233   1.399       .  A
C229        C230   1.408       .  A
C229        H234   1.084       .  S
C230        C231   1.412       .  A
C230        C706   1.493       .  S
C231        C232   1.401       .  A
C231        H235   1.082       .  S
C232        C702   1.442       .  S
C232        C233   1.397       .  A
C233        H236   1.085       .  S
C237        C238   1.407       .  A
C237       C1046   1.406   1_545  A
C237        C698   1.479       .  S
C238        C239   1.402       .  A
C238        H243   1.084       .  S
C239        C712   1.441       .  S
C239        C240   1.396       .  A
C240       C1045   1.399   1_545  A
C240        H244   1.085       .  S
C241        C696   1.441       .  S
C241        C242   1.405       .  A
C241       C1044   1.398       .  A
C242       C1041   1.408       .  A
C242        H245   1.084       .  S
C246        C744   1.439       .  S
C246        C247   1.404       .  A
C246        C251   1.398       .  A
C247        C248   1.408       .  A
C247        H252   1.084       .  S
C248        C249   1.407       .  A
C248        C697   1.481       .  S
C249        C250   1.401       .  A
C249        H253   1.084       .  S
C250        C693   1.438       .  S
C250        C251   1.394       .  A
C251        H254   1.085       .  S
C255        C687   1.437       .  S
C255        C256   1.400   1_455  A
C255        C260   1.400       .  A
C256       C1865   1.398       .  A
C256        H261   1.085   1_655  S
C257        C714   1.442       .  S
C257        C258   1.402       .  A
C257       C1864   1.397       .  A
C258        C259   1.412       .  A
C258        H262   1.082       .  S
C259       C1868   1.405       .  A
C259        C689   1.489       .  S
C260       C1867   1.405   1_455  A
C260        H263   1.084       .  S
C264        C746   1.439       .  S
C264        C265   1.406       .  A
C264        C269   1.399       .  A
C265        C266   1.412       .  A
C265        H270   1.083       .  S
C266        C267   1.403       .  A
C266        C690   1.483       .  S
C267        C268   1.396       .  A
C267        H271   1.085       .  S
C268        C685   1.435       .  S
C268        C269   1.394       .  A
C269        H272   1.085       .  S
Fe273       O289   2.051       .  S
Fe273       O279   2.093       .  S
Fe273       O286   2.093       .  S
Fe273       O278   2.044       .  S
Fe273       O284   1.960       .  S
Fe274       O277   2.053       .  S
Fe274       O281   2.087       .  S
Fe274       O285   2.043       .  S
Fe274       O290   2.089       .  S
Fe274       O284   1.960       .  S
Fe275       O293   2.080       .  S
Fe275       O280   2.042       .  S
Fe275       O287   2.050       .  S
Fe275       O276   2.081       .  S
Fe275       O284   1.965       .  S
O276        C283   1.269       .  A
O277        C291   1.265       .  A
O278        C283   1.264       .  A
O279        C282   1.274       .  A
O280        C292   1.264       .  A
O281        C294   1.273       .  A
C282        O287   1.265       .  A
C282        C748   1.437       .  S
C283        C686   1.429       .  S
O285        C288   1.263       .  A
O286        C288   1.272       .  A
C288        C701   1.436       .  S
O289        C294   1.266       .  A
O290        C292   1.272       .  A
C291        O293   1.270       .  A
C291        C730   1.434       .  S
C292        C694   1.432       .  S
C294        C721   1.435       .  S
Fe295       O311   2.083       .  S
Fe295       O301   2.054       .  S
Fe295       O308   2.046   1_554  S
Fe295       O300   2.085       .  S
Fe295       O306   1.963       .  S
Fe296       O299   2.087       .  S
Fe296       O303   2.055       .  S
Fe296       O307   2.087       .  S
Fe296       O312   2.047   1_554  S
Fe296       O306   1.965       .  S
Fe297       O315   2.053       .  S
Fe297       O302   2.076       .  S
Fe297       O309   2.074       .  S
Fe297       O298   2.045   1_554  S
Fe297       O306   1.963       .  S
O298        C305   1.264       .  A
O299        C313   1.272       .  A
O300        C305   1.270   1_554  A
O301        C304   1.266       .  A
O302        C314   1.268   1_554  A
O303        C316   1.266       .  A
C304        O309   1.269       .  A
C304        C688   1.431       .  S
C305        C684   1.431       .  S
O307        C310   1.271   1_554  A
O308        C310   1.264       .  A
C310        C681   1.433       .  S
O311        C316   1.272       .  A
O312        C314   1.264       .  A
C313        O315   1.266       .  A
C313        C695   1.436       .  S
C314        C679   1.429       .  S
C316        C703   1.436       .  S
C317        C318   1.412       .  A
C317        C322   1.412       .  A
C317        C675   1.496       .  S
C318        C319   1.399       .  A
C318        H323   1.083       .  S
C319        C673   1.436       .  S
C319        C320   1.392       .  A
C320        C321   1.396       .  A
C320        H324   1.085       .  S
C321        C671   1.440       .  S
C321        C322   1.408       .  A
C322        H325   1.084       .  S
C326        C327   1.414       .  A
C326        C331   1.405       .  A
C326        C676   1.488       .  S
C327        C328   1.410       .  A
C327        H332   1.083       .  S
C328        C720   1.444       .  S
C328        C329   1.401       .  A
C329        C330   1.394       .  A
C329        H333   1.085       .  S
C330        C682   1.439       .  S
C330        C331   1.396       .  A
C331        H334   1.085       .  S
C335        C336   1.408       .  A
C335        C340   1.412       .  A
C335        C668   1.491       .  S
C336        C337   1.404       .  A
C336        H341   1.084       .  S
C337        C663   1.437       .  S
C337        C338   1.397       .  A
C338        C339   1.393       .  A
C338        H342   1.085       .  S
C339        C665   1.438       .  S
C339        C340   1.400       .  A
C340        H343   1.083       .  S
C344        C349   1.402       .  A
C344       C1149   1.413       .  A
C344        C667   1.481       .  S
C345        C346   1.410       .  A
C345       C1148   1.413   1_545  A
C345        H350   1.083       .  S
C346        C718   1.443       .  S
C346        C347   1.400       .  A
C347       C1152   1.394   1_545  A
C347        H351   1.085       .  S
C348        C680   1.434       .  S
C348        C349   1.394       .  A
C348       C1151   1.393       .  A
C349        H352   1.085       .  S
C353        C656   1.437       .  S
C353        C354   1.397       .  A
C353        C358   1.405       .  A
C354        C355   1.393       .  A
C354        H359   1.085       .  S
C355        C658   1.436       .  S
C355        C356   1.399       .  A
C356        C357   1.411       .  A
C356        H360   1.083       .  S
C357        C358   1.408       .  A
C357        C660   1.491       .  S
C358        H361   1.084       .  S
C362        C367   1.403       .  A
C362       C1971   1.413       .  A
C362        C659   1.484       .  S
C363        C364   1.409       .  A
C363       C1970   1.414       .  A
C363        H368   1.083       .  S
C364        C716   1.444       .  S
C364       C1973   1.401       .  A
C365        C366   1.395       .  A
C365       C1972   1.401   1_455  A
C365        H369   1.085       .  S
C366        C683   1.437       .  S
C366        C367   1.395       .  A
C367        H370   1.085       .  S
Fe371       O387   2.088       .  S
Fe371       O377   2.040       .  S
Fe371       O384   2.045       .  S
Fe371       O376   2.086       .  S
Fe371       O382   1.957       .  S
Fe372       O375   2.093       .  S
Fe372       O379   2.037       .  S
Fe372       O383   2.090       .  S
Fe372       O388   2.040       .  S
Fe372       O382   1.955       .  S
Fe373       O391   2.039       .  S
Fe373       O378   2.084       .  S
Fe373       O385   2.088       .  S
Fe373       O374   2.045       .  S
Fe373       O382   1.958       .  S
O374        C381   1.264       .  A
O375        C389   1.273       .  A
O376        C381   1.272       .  A
O377        C380   1.263       .  A
O378        C390   1.271       .  A
O379        C392   1.262       .  A
C380        O385   1.271       .  A
C380        C657   1.430       .  S
C381        C651   1.431       .  S
O383        C386   1.273       .  A
O384        C386   1.264       .  A
C386        C653   1.433       .  S
O387        C392   1.271       .  A
O388        C390   1.262       .  A
C389        O391   1.264       .  A
C389        C666   1.432       .  S
C390        C649   1.428       .  S
C392        C674   1.430       .  S
C393        C642   1.442       .  S
C393        C394   1.407       .  A
C393        C398   1.402       .  A
C394        C395   1.412       .  A
C394        H399   1.083       .  S
C395        C396   1.404       .  A
C395        C645   1.485       .  S
C396        C397   1.396       .  A
C396        H400   1.085       .  S
C397        C644   1.440       .  S
C397        C398   1.396       .  A
C398        H401   1.085       .  S
C402        C403   1.409       .  A
C402        C407   1.412       .  A
C402       C2254   1.493       .  S
C403        C404   1.406       .  A
C403        H408   1.084       .  S
C404        C654   1.438       .  S
C404        C405   1.396       .  A
C405        C406   1.393       .  A
C405        H409   1.085       .  S
C406        C640   1.436       .  S
C406        C407   1.399       .  A
C407        H410   1.082       .  S
Fe411       O427   2.058       .  S
Fe411       O424   2.093       .  S
Fe411      O2025   2.092   1_455  S
Fe411      O2024   2.048   1_455  S
Fe411      O2834   1.961   1_455  S
Fe412       O423   2.043       .  S
Fe412      O2023   2.052   1_455  S
Fe412      O1223   2.088       .  S
Fe412      O2036   2.090   1_455  S
Fe412      O2030   1.961   1_455  S
Fe413       O431   2.086       .  S
Fe413       O418   2.041       .  S
Fe413      O1229   2.051       .  S
Fe413      O1218   2.087       .  S
Fe413       O422   1.961       .  S
O414      Fe1217   2.089   1_545  S
O414        C421   1.270       .  A
O415      Fe2020   2.049       .  S
O415        C429   1.264       .  A
O416      Fe2019   2.046       .  S
O416        C421   1.263       .  A
O417      Fe2019   2.092       .  S
O417        C420   1.275       .  A
O418        C430   1.265       .  A
O419      Fe1216   2.085   1_545  S
O419        C432   1.272       .  A
C420        O425   1.268   1_545  A
C420        C633   1.438       .  S
C421        C643   1.434       .  S
O422      Fe2823   1.958       .  S
O422      Fe2020   1.960       .  S
O423       C1230   1.264       .  A
O424        C426   1.272       .  A
O425      Fe1217   2.054       .  S
C426       O1227   1.263       .  A
C426        C629   1.435       .  S
O427        C432   1.267       .  A
O428      Fe2020   2.084       .  S
O428        C430   1.271       .  A
C429        O431   1.271       .  A
C429        C637   1.435       .  S
C430        C631   1.427       .  S
C432        C635   1.439       .  S
C433        C434   1.404       .  A
C433        C438   1.412       .  A
C433        C625   1.485       .  S
C434        C435   1.402       .  A
C434        H439   1.084       .  S
C435        C650   1.434       .  S
C435        C436   1.398       .  A
C436        C437   1.395       .  A
C436        H440   1.085       .  S
C437        C623   1.442       .  S
C437        C438   1.404       .  A
C438        H441   1.084       .  S
C442        C621   1.443       .  S
C442        C443   1.398       .  A
C442        C447   1.412       .  A
C443        C444   1.390       .  A
C443        H448   1.085       .  S
C444        C632   1.433       .  S
C444        C445   1.393       .  A
C445        C446   1.403       .  A
C445        H449   1.085       .  S
C446        C447   1.417       .  A
C446        C626   1.488       .  S
C447        H450   1.082       .  S
C451        C452   1.411       .  A
C451        C456   1.407       .  A
C451        C617   1.490       .  S
C452        C453   1.399       .  A
C452        H457   1.083       .  S
C453        C616   1.437       .  S
C453        C454   1.394       .  A
C454        C455   1.397       .  A
C454        H458   1.085       .  S
C455        C652   1.436       .  S
C455        C456   1.404       .  A
C456        H459   1.084       .  S
C460        C614   1.440       .  S
C460        C461   1.398       .  A
C460        C465   1.405       .  A
C461        C462   1.395       .  A
C461        H466   1.085       .  S
C462        C630   1.441       .  S
C462        C463   1.401       .  A
C463        C464   1.414       .  A
C463        H467   1.082       .  S
C464        C465   1.409       .  A
C464       C1422   1.495   1_545  S
C465        H468   1.084       .  S
Fe469       O485   2.048       .  S
Fe469       O482   2.084       .  S
Fe469       O474   2.042   1_545  S
Fe469      O1279   2.082   1_545  S
Fe469       O480   1.961   1_455  S
Fe470       O473   2.046       .  S
Fe470       O481   2.039       .  S
Fe470      O2085   2.093       .  S
Fe470      O1290   2.095   1_545  S
Fe470      O2088   1.958       .  S
Fe471       O489   2.081       .  S
Fe471       O476   2.042       .  S
Fe471      O2091   2.047       .  S
Fe471      O2080   2.083       .  S
Fe471      O2892   1.962       .  S
O472      Fe2079   2.089   1_455  S
O472        C479   1.271       .  A
O473       C1291   1.263   1_545  A
O474       C1283   1.264       .  A
O475      Fe1273   2.088       .  S
O475        C478   1.273       .  A
O476        C488   1.264       .  A
O477      Fe2078   2.093   1_455  S
O477        C490   1.275       .  A
C478        O483   1.265   1_455  A
C478        C655   1.431       .  S
C479       O1278   1.263       .  A
C479        C615   1.431       .  S
O480      Fe2078   1.958       .  S
O480      Fe2883   1.962   1_545  S
O481       C2092   1.261       .  A
O482        C484   1.269       .  A
O483      Fe2079   2.045       .  S
C484       O2089   1.261       .  A
C484        C639   1.430       .  S
O485        C490   1.266       .  A
O486      Fe1274   2.099       .  S
O486        C488   1.275       .  A
C487        O489   1.269       .  A
C487       O1277   1.262       .  A
C487        C664   1.432       .  S
C488        C624   1.437       .  S
C490        C672   1.436       .  S
Fe491       O507   2.099       .  S
Fe491       O497   2.037       .  S
Fe491       O504   2.044       .  S
Fe491       O496   2.096       .  S
Fe491       O502   1.957       .  S
Fe492       O495   2.087       .  S
Fe492       O499   2.036       .  S
Fe492       O503   2.085       .  S
Fe492       O508   2.041       .  S
Fe492       O502   1.958       .  S
Fe493       O511   2.041       .  S
Fe493       O498   2.098       .  S
Fe493       O505   2.098       .  S
Fe493       O494   2.049       .  S
Fe493       O502   1.959       .  S
O494        C501   1.264       .  A
O495        C509   1.271       .  A
O496        C501   1.274       .  A
O497        C500   1.262       .  A
O498        C510   1.275       .  A
O499        C512   1.262       .  A
C500        O505   1.274       .  A
C500        C608   1.434       .  S
C501        C784   1.439       .  S
O503        C506   1.272       .  A
O504        C506   1.264       .  A
C506        C768   1.430       .  S
O507        C512   1.273       .  A
O508        C510   1.263       .  A
C509        O511   1.262       .  A
C509        C612   1.431       .  S
C510        C774   1.436       .  S
C512        C609   1.434       .  S
C513        C514   1.407       .  A
C513        C518   1.414       .  A
C513        C603   1.493       .  S
C514        C515   1.402       .  A
C514        H519   1.084       .  S
C515        C804   1.435       .  S
C515        C516   1.397       .  A
C516        C517   1.394       .  A
C516        H520   1.085       .  S
C517        C607   1.440       .  S
C517        C518   1.402       .  A
C518        H521   1.082       .  S
C522        C523   1.414       .  A
C522        C527   1.403       .  A
C522        C604   1.485       .  S
C523        C524   1.409       .  A
C523        H528   1.083       .  S
C524        C636   1.444       .  S
C524        C525   1.401       .  A
C525        C526   1.395       .  A
C525        H529   1.085       .  S
C526        C601   1.437       .  S
C526        C527   1.395       .  A
C527        H530   1.085       .  S
C531        C802   1.440       .  S
C531        C536   1.406       .  A
C531       C2140   1.398   1_455  A
C532        C533   1.394       .  A
C532       C2139   1.397       .  A
C532        H537   1.085       .  S
C533        C611   1.436       .  S
C533        C534   1.400       .  A
C534        C535   1.407       .  A
C534        H538   1.084       .  S
C535       C2144   1.410       .  A
C535        C597   1.483       .  S
C536       C2143   1.409   1_455  A
C536        H539   1.084       .  S
C540        C541   1.407       .  A
C540        C545   1.408       .  A
C540        C598   1.481       .  S
C541        C542   1.404       .  A
C541        H546   1.084       .  S
C542        C638   1.441       .  S
C542        C543   1.399       .  A
C543        C544   1.397       .  A
C543        H547   1.085       .  S
C544        C596   1.442       .  S
C544        C545   1.403       .  A
C545        H548   1.084       .  S
C549        C799   1.438       .  S
C549        C554   1.405       .  A
C549       C1354   1.397       .  A
C550        C551   1.394       .  A
C550       C1353   1.397   1_545  A
C550        H555   1.085       .  S
C551        C610   1.440       .  S
C551        C552   1.402       .  A
C552        C553   1.413       .  A
C552        H556   1.082       .  S
C553       C1358   1.408   1_545  A
C553        C591   1.493       .  S
C554       C1357   1.409       .  A
C554        H557   1.084       .  S
C558        C634   1.443       .  S
C558        C559   1.409       .  A
C558        C563   1.400       .  A
C559        C560   1.413       .  A
C559        H564   1.083       .  S
C560        C561   1.404       .  A
C560        C592   1.487       .  S
C561        C562   1.397       .  A
C561        H565   1.085       .  S
C562        C589   1.438       .  S
C562        C563   1.395       .  A
C563        H566   1.085       .  S
Fe567       O583   2.092       .  S
Fe567       O573   2.054       .  S
Fe567       O580   2.044       .  S
Fe567       O572   2.093       .  S
Fe567       O578   1.964       .  S
Fe568       O571   2.092       .  S
Fe568       O575   2.052       .  S
Fe568       O579   2.092       .  S
Fe568       O584   2.043       .  S
Fe568       O578   1.960       .  S
Fe569       O587   2.051       .  S
Fe569       O574   2.083       .  S
Fe569       O581   2.080       .  S
Fe569       O570   2.043       .  S
Fe569       O578   1.963       .  S
O570        C577   1.266       .  A
O571        C585   1.275       .  A
O572        C577   1.274       .  A
O573        C576   1.264       .  A
O574        C586   1.268       .  A
O575        C588   1.265       .  A
C576        O581   1.269       .  A
C576        C641   1.436       .  S
C577        C590   1.432       .  S
O579        C582   1.273       .  A
O580        C582   1.263       .  A
C582        C595   1.436       .  S
O583        C588   1.274       .  A
O584        C586   1.262       .  A
C585        O587   1.268       .  A
C585        C613   1.435       .  S
C586        C602   1.431       .  S
C588        C622   1.439       .  S
C589        C590   1.204       .  T
C591        C592   1.347       .  D
C591        H593   1.086       .  S
C592        H594   1.085       .  S
C595        C596   1.207       .  T
C597        C598   1.346       .  D
C597        H599   1.086       .  S
C598        H600   1.087       .  S
C601        C602   1.204       .  T
C603        C604   1.346       .  D
C603        H605   1.086       .  S
C604        H606   1.085       .  S
C607        C608   1.206       .  T
C609        C610   1.206       .  T
C611        C612   1.204       .  T
C613        C614   1.206       .  T
C615        C616   1.204       .  T
C617        C618   1.346       .  D
C617        H619   1.086       .  S
C618       C1268   1.484       .  S
C618        H620   1.085       .  S
C621        C622   1.209       .  T
C623        C624   1.207       .  T
C625        C626   1.342       .  D
C625        H627   1.085       .  S
C626        H628   1.088       .  S
C629        C630   1.206       .  T
C631        C632   1.201       .  T
C633        C634   1.208       .  T
C635        C636   1.208       .  T
C637        C638   1.206       .  T
C639        C640   1.203       .  T
C641        C642   1.207       .  T
C643        C644   1.205       .  T
C645        C646   1.348       .  D
C645        H647   1.085       .  S
C646       C2010   1.492       .  S
C646       H2256   1.086       .  S
H648       C2254   1.086   1_655  S
C649        C650   1.202       .  T
C651        C652   1.203       .  T
C653        C654   1.205       .  T
C655        C656   1.204       .  T
C657        C658   1.203       .  T
C659        C660   1.346       .  D
C659        H661   1.085       .  S
C660        H662   1.086       .  S
C663        C664   1.204       .  T
C665        C666   1.204       .  T
C667        C668   1.345       .  D
C667        H669   1.085       .  S
C668        H670   1.086       .  S
C671        C672   1.207       .  T
C673        C674   1.203       .  T
C675        C676   1.349       .  D
C675        H677   1.085       .  S
C676        H678   1.085       .  S
C679        C680   1.202       .  T
C681        C682   1.205       .  T
C683        C684   1.204       .  T
C685        C686   1.203       .  T
C687        C688   1.204       .  T
C689        C690   1.345       .  D
C689        H691   1.086       .  S
C690        H692   1.085       .  S
C693        C694   1.204       .  T
C695        C696   1.207       .  T
C697        C698   1.345       .  D
C697        H699   1.087       .  S
C698        H700   1.087       .  S
C701        C702   1.207       .  T
C703        C704   1.207       .  T
C705        C706   1.347       .  D
C705        H707   1.085       .  S
C706        H708   1.086       .  S
C709        C710   1.205       .  T
C711        C712   1.206       .  T
C713        C714   1.207       .  T
C715        C716   1.209       .  T
C717        C718   1.208       .  T
C719        C720   1.208       .  T
C721        C722   1.206       .  T
C723        C724   1.202       .  T
C725       C1774   1.493   1_455  S
C725        C726   1.346       .  D
C725        H727   1.086       .  S
C726        H728   1.085       .  S
C729        C730   1.206       .  T
C731        C732   1.206       .  T
C733        C734   1.345       .  D
C733        H735   1.087       .  S
C734        H736   1.087       .  S
C737        C738   1.206       .  T
C739        C740   1.205       .  T
C741        C742   1.207       .  T
C743        C744   1.206       .  T
C745        C746   1.205       .  T
C747        C748   1.207       .  T
C749        C750   1.204       .  T
C751        C752   1.206       .  T
C753        C905   1.495   1_545  S
C753        C754   1.348       .  D
C753        H755   1.086       .  S
C754        H756   1.085       .  S
C757        C758   1.206       .  T
C759        C760   1.207       .  T
C761        C762   1.205       .  T
C763        C764   1.203       .  T
C765        C766   1.205       .  T
C767        C768   1.203       .  T
C769        C770   1.343       .  D
C769        H771   1.087       .  S
C770        H772   1.085       .  S
C773        C774   1.207       .  T
C775        C776   1.208       .  T
C777        C778   1.203       .  T
C779        C780   1.348       .  D
C779        H781   1.086       .  S
C780        H782   1.086       .  S
C783        C784   1.208       .  T
C785        C786   1.207       .  T
C787        C788   1.205       .  T
C789        C790   1.349       .  D
C789        H791   1.086       .  S
C790        H792   1.083       .  S
C793        C794   1.204       .  T
C795        C796   1.203       .  T
C797        C798   1.203       .  T
C799        C800   1.205       .  T
C801        C802   1.206       .  T
C803        C804   1.203       .  T
Fe805       O821   2.038       .  S
Fe805       O811   2.094       .  S
Fe805       O818   2.094       .  S
Fe805       O810   2.044       .  S
Fe805       O816   1.957       .  S
Fe806       O809   2.038       .  S
Fe806       O813   2.089       .  S
Fe806       O817   2.048       .  S
Fe806       O822   2.085       .  S
Fe806       O816   1.958       .  S
Fe807       O825   2.090       .  S
Fe807       O812   2.047       .  S
Fe807       O819   2.040       .  S
Fe807       O808   2.089       .  S
Fe807       O816   1.959       .  S
O808        C815   1.273       .  A
O809        C823   1.263       .  A
O810        C815   1.264       .  A
O811        C814   1.272       .  A
O812        C824   1.264       .  A
O813        C826   1.271       .  A
C814        O819   1.262       .  A
C814       C1601   1.434       .  S
C815       C1607   1.432       .  S
O817        C820   1.264       .  A
O818        C820   1.274       .  A
C820       C1605   1.437       .  S
O821        C826   1.262       .  A
O822        C824   1.272       .  A
C823        O825   1.272       .  A
C823       C1600   1.430       .  S
C824       C1604   1.433       .  S
C826       C1598   1.430       .  S
C827       C1589   1.443       .  S
C827        C828   1.399       .  A
C827        C832   1.407       .  A
C828        C829   1.396       .  A
C828        H833   1.085       .  S
C829       C1591   1.439       .  S
C829        C830   1.400       .  A
C830        C831   1.406       .  A
C830        H834   1.084       .  S
C831        C832   1.409       .  A
C831       C1593   1.481       .  S
C832        H835   1.084       .  S
C836       C1587   1.441       .  S
C836        C837   1.399       .  A
C836        C841   1.405       .  A
C837        C838   1.396       .  A
C837        H842   1.085       .  S
C838       C1602   1.440       .  S
C838        C839   1.402       .  A
C839        C840   1.406       .  A
C839        H843   1.084       .  S
C840        C841   1.407       .  A
C840       C1594   1.480       .  S
C841        H844   1.084       .  S
C845       C1579   1.439       .  S
C845        C846   1.406       .  A
C845        C850   1.400       .  A
C846        C847   1.410       .  A
C846        H851   1.084       .  S
C847        C848   1.402       .  A
C847       C1583   1.479       .  S
C848        C849   1.397       .  A
C848        H852   1.085       .  S
C849       C1582   1.435       .  S
C849        C850   1.395       .  A
C850        H853   1.085       .  S
C854       C1577   1.438       .  S
C854        C855   1.406       .  A
C854       C2467   1.397       .  A
C855       C2464   1.408       .  A
C855        H860   1.084       .  S
C856       C2463   1.405   1_455  A
C856        C857   1.402       .  A
C856       C1584   1.473       .  S
C857        C858   1.399       .  A
C857        H861   1.085       .  S
C858       C1597   1.435       .  S
C858        C859   1.395       .  A
C859       C2462   1.399   1_455  A
C859        H862   1.085   1_455  S
C863       C1571   1.437       .  S
C863        C864   1.399       .  A
C863        C868   1.403       .  A
C864        H869   1.085       .  S
C865       C1599   1.436       .  S
C865        C866   1.399       .  A
C866        C867   1.412       .  A
C866        H870   1.082       .  S
C867       C1574   1.492       .  S
C868        H871   1.084       .  S
C872       C1567   1.441       .  S
C872        C873   1.408       .  A
C872        C877   1.401       .  A
C873        C874   1.412       .  A
C873        H878   1.083       .  S
C874        C875   1.401       .  A
C874       C1573   1.480       .  S
C875        C876   1.393       .  A
C875        H879   1.085       .  S
C876       C1569   1.434       .  S
C876        C877   1.395       .  A
C877        H880   1.085       .  S
Fe881       O897   2.050       .  S
Fe881       O887   2.086       .  S
Fe881       O894   2.086       .  S
Fe881       O886   2.046       .  S
Fe881       O892   1.959       .  S
Fe882       O885   2.052       .  S
Fe882       O889   2.087       .  S
Fe882       O893   2.044       .  S
Fe882       O898   2.090       .  S
Fe882       O892   1.960       .  S
Fe883       O901   2.074       .  S
Fe883       O888   2.041       .  S
Fe883       O895   2.048       .  S
Fe883       O884   2.078       .  S
Fe883       O892   1.961       .  S
O884        C891   1.267       .  A
O885        C899   1.264       .  A
O886        C891   1.264       .  A
O887        C890   1.273       .  A
O888        C900   1.266       .  A
O889        C902   1.273       .  A
C890        O895   1.266       .  A
C890       C1564   1.431       .  S
C891       C1570   1.429       .  S
O893        C896   1.263       .  A
O894        C896   1.270       .  A
C896       C1592   1.433       .  S
O897        C902   1.266       .  A
O898        C900   1.273       .  A
C899        O901   1.267       .  A
C899       C1566   1.432       .  S
C900       C1581   1.429       .  S
C902       C1562   1.435       .  S
C903       C1561   1.440       .  S
C903        C904   1.406       .  A
C903        C908   1.397       .  A
C904        C905   1.410       .  A
C904        H909   1.084       .  S
C905        C906   1.413       .  A
C906        C907   1.401       .  A
C906        H910   1.082   1_565  S
C907       C1556   1.439       .  S
C907        C908   1.393       .  A
C908        H911   1.085       .  S
C912        C913   1.403       .  A
C912        C917   1.414       .  A
C912       C1558   1.486       .  S
C913        C914   1.395       .  A
C913        H918   1.085       .  S
C914       C1553   1.436       .  S
C914        C915   1.394       .  A
C915        C916   1.400       .  A
C915        H919   1.085       .  S
C916       C1551   1.442       .  S
C916        C917   1.410       .  A
C917        H920   1.083       .  S
Fe921       O927   2.053       .  S
Fe921       O926   2.081       .  S
Fe921      O1736   1.965   1_565  S
Fe922       O925   2.093       .  S
Fe922      O2537   2.053       .  S
Fe922       O933   2.092       .  S
Fe922       O938   2.045       .  S
Fe922       O932   1.963       .  S
Fe923       O935   2.084   1_455  S
Fe923      O2532   2.045       .  S
O924      Fe2531   2.046       .  S
O924        C931   1.264       .  A
O925        C939   1.273       .  A
O926        C931   1.269       .  A
O927        C930   1.266       .  A
O928        C940   1.271       .  A
O929      Fe2530   2.054       .  S
O929        C942   1.266       .  A
C930       O2543   1.271       .  A
C930       C1546   1.434       .  S
C931       C1541   1.431       .  S
O932      Fe1725   1.960   1_455  S
O933       C2544   1.272   1_455  A
O934        C936   1.264       .  A
O935       C2538   1.272       .  A
C936       O2541   1.269       .  A
C936       C1554   1.430       .  S
O937        C942   1.273       .  A
O938        C940   1.264       .  A
C939        O941   1.265       .  A
C939       C1547   1.438       .  S
C940       C1543   1.432       .  S
C942       C1549   1.437       .  S
C943        C944   1.404       .  A
C943        C948   1.406       .  A
C943       C1537   1.475       .  S
C944        C945   1.401       .  A
C944        H949   1.084       .  S
C945       C1565   1.438       .  S
C945        C946   1.400       .  A
C946        C947   1.398       .  A
C946        H950   1.085       .  S
C947       C1536   1.442       .  S
C947        C948   1.403       .  A
C948        H951   1.084       .  S
C952        C953   1.407       .  A
C952        C957   1.406       .  A
C952       C1538   1.480       .  S
C953        C954   1.404       .  A
C953        H958   1.084       .  S
C954       C1533   1.440       .  S
C954        C955   1.399       .  A
C955        C956   1.395       .  A
C955        H959   1.085       .  S
C956       C1544   1.438       .  S
C956        C957   1.399       .  A
C957        H960   1.084       .  S
C961        C962   1.407       .  A
C961        C966   1.413       .  A
C961       C1530   1.492       .  S
C962        C963   1.403       .  A
C962        H967   1.084       .  S
C963       C1563   1.437       .  S
C963        C964   1.399       .  A
C964        C965   1.395       .  A
C964        H968   1.085       .  S
C965       C1527   1.441       .  S
C965        C966   1.401       .  A
C966        H969   1.082       .  S
C970        C971   1.402       .  A
C970        C975   1.414       .  A
C970       C3137   1.484       .  S
C971        C972   1.394       .  A
C971        H976   1.085       .  S
C972       C1542   1.436       .  S
C972        C973   1.395       .  A
C973        C974   1.401       .  A
C973        H977   1.085       .  S
C974       C1526   1.445       .  S
C974        C975   1.410       .  A
C975        H978   1.083       .  S
Fe979      O2603   2.095       .  S
Fe979       O985   2.039       .  S
Fe979      O2600   2.046       .  S
Fe979       O984   2.094       .  S
Fe979      O2598   1.958       .  S
Fe980       O983   2.081       .  S
Fe980       O987   2.045       .  S
Fe980       O991   2.079       .  S
Fe980       O990   1.965       .  S
Fe981      O2607   2.042       .  S
Fe981      O2594   2.090       .  S
Fe981       O993   2.092       .  S
Fe981       O982   2.052       .  S
Fe981      O1794   1.961   1_565  S
O982        C989   1.266       .  A
O986      Fe2589   2.087   1_455  S
O986        C998   1.272       .  A
O987       C1000   1.264       .  A
C988        O993   1.271       .  A
C988       C1555   1.432       .  S
C989       C1590   1.439       .  S
O990      Fe2587   1.959   1_455  S
O990      Fe1785   1.964   1_455  S
O991        C994   1.270       .  A
O992      Fe2587   2.051   1_455  S
O992        C994   1.264       .  A
C994       C1580   1.434       .  S
O995      Fe2587   2.094   1_455  S
O995       C1000   1.274       .  A
O996        C998   1.265   1_545  A
C997        O999   1.264       .  A
C997       C1528   1.435       .  S
C998       C1568   1.435       .  S
O999      Fe2589   2.041   1_455  S
C1000      C1535   1.436       .  S
Fe1001     O1017   2.042   1_556  S
Fe1001     O1007   2.087   1_556  S
Fe1001     O1014   2.088       .  S
Fe1001     O1006   2.050       .  S
Fe1001     O1012   1.965       .  S
Fe1002     O1005   2.039   1_556  S
Fe1002     O1009   2.096   1_556  S
Fe1002     O1013   2.050       .  S
Fe1002     O1018   2.094       .  S
Fe1002     O1012   1.960       .  S
Fe1003     O1021   2.100   1_556  S
Fe1003     O1008   2.055       .  S
Fe1003     O1015   2.044   1_556  S
Fe1003     O1004   2.100       .  S
Fe1003     O1012   1.962       .  S
O1004      C1011   1.275       .  A
O1005      C1019   1.261       .  A
O1006      C1011   1.265       .  A
O1007      C1010   1.271       .  A
O1008      C1020   1.267       .  A
O1009      C1022   1.274       .  A
C1010      O1015   1.264       .  A
C1010      C1514   1.431       .  S
C1011      C1523   1.441       .  S
O1013      C1016   1.264       .  A
O1014      C1016   1.272       .  A
C1016      C1521   1.437       .  S
O1017      C1022   1.263       .  A
O1018      C1020   1.275       .  A
C1019      O1021   1.273       .  A
C1019      C1517   1.438       .  S
C1020      C1519   1.440       .  S
C1022      C1515   1.436       .  S
C1023      C1508   1.440       .  S
C1023      C1024   1.399       .  A
C1023      C1028   1.407       .  A
C1024      C1025   1.394       .  A
C1024      H1029   1.085       .  S
C1025      C1513   1.437       .  S
C1025      C1026   1.397       .  A
C1026      C1027   1.404       .  A
C1026      H1030   1.085       .  S
C1027      C1028   1.413       .  A
C1027      C1509   1.485       .  S
C1028      H1031   1.083       .  S
C1032      C1545   1.440       .  S
C1032      C1033   1.402       .  A
C1032      C1037   1.399       .  A
C1033      C1034   1.407       .  A
C1033      H1038   1.084       .  S
C1034      C1035   1.412       .  A
C1034      C1510   1.491       .  S
C1035      C1036   1.402       .  A
C1035      H1039   1.082       .  S
C1036      C1506   1.442       .  S
C1036      C1037   1.397       .  A
C1037      H1040   1.085       .  S
C1041      C1042   1.409       .  A
C1041      C1502   1.483       .  S
C1042      C1043   1.404       .  A
C1042      H1047   1.084       .  S
C1043      C1516   1.442       .  S
C1043      C1044   1.396       .  A
C1044      H1048   1.085       .  S
C1045      C1500   1.440       .  S
C1045      C1046   1.403       .  A
C1046      H1049   1.084       .  S
C1050      C1548   1.443       .  S
C1050      C1051   1.406       .  A
C1050      C1055   1.399       .  A
C1051      C1052   1.409       .  A
C1051      H1056   1.084       .  S
C1052      C1053   1.408       .  A
C1052      C1501   1.485       .  S
C1053      C1054   1.402       .  A
C1053      H1057   1.084       .  S
C1054      C1497   1.440       .  S
C1054      C1055   1.396       .  A
C1055      H1058   1.085       .  S
C1059      C1491   1.439       .  S
C1059      C1060   1.399   1_455  A
C1059      C1064   1.402       .  A
C1060      C2669   1.397       .  A
C1060      H1065   1.085   1_655  S
C1061      C1518   1.444       .  S
C1061      C2668   1.397       .  A
C1061      C1062   1.404       .  A
C1062      C1063   1.414       .  A
C1062      H1066   1.082       .  S
C1063      C2672   1.406       .  A
C1063      C1493   1.492       .  S
C1064      C2671   1.406   1_455  A
C1064      H1067   1.084       .  S
C1068      C1550   1.442       .  S
C1068      C1069   1.408       .  A
C1068      C1073   1.400       .  A
C1069      C1070   1.414       .  A
C1069      H1074   1.083       .  S
C1070      C1071   1.402       .  A
C1070      C1494   1.484       .  S
C1071      C1072   1.395       .  A
C1071      H1075   1.085       .  S
C1072      C1489   1.435       .  S
C1072      C1073   1.394       .  A
C1073      H1076   1.085       .  S
Fe1077     O1093   2.057       .  S
Fe1077     O1083   2.093       .  S
Fe1077     O1090   2.093       .  S
Fe1077     O1082   2.047       .  S
Fe1077     O1088   1.963       .  S
Fe1078     O1081   2.053       .  S
Fe1078     O1085   2.091       .  S
Fe1078     O1089   2.043       .  S
Fe1078     O1094   2.093       .  S
Fe1078     O1088   1.962       .  S
Fe1079     O1097   2.079       .  S
Fe1079     O1084   2.044       .  S
Fe1079     O1091   2.050       .  S
Fe1079     O1080   2.079       .  S
Fe1079     O1088   1.967       .  S
O1080      C1087   1.268       .  A
O1081      C1095   1.265       .  A
O1082      C1087   1.264       .  A
O1083      C1086   1.274       .  A
O1084      C1096   1.264       .  A
O1085      C1098   1.274       .  A
C1086      O1091   1.266       .  A
C1086      C1552   1.437       .  S
C1087      C1490   1.430       .  S
O1089      C1092   1.263       .  A
O1090      C1092   1.272       .  A
C1092      C1505   1.436       .  S
O1093      C1098   1.267       .  A
O1094      C1096   1.273       .  A
C1095      O1097   1.269       .  A
C1095      C1534   1.435       .  S
C1096      C1498   1.435       .  S
C1098      C1525   1.440       .  S
Fe1099     O1115   2.081       .  S
Fe1099     O1105   2.053       .  S
Fe1099     O1112   2.046   1_554  S
Fe1099     O1104   2.083   1_554  S
Fe1099     O1110   1.963       .  S
Fe1100     O1103   2.082       .  S
Fe1100     O1107   2.055       .  S
Fe1100     O1111   2.084       .  S
Fe1100     O1116   2.047   1_554  S
Fe1100     O1110   1.965       .  S
Fe1101     O1119   2.054       .  S
Fe1101     O1106   2.079       .  S
Fe1101     O1113   2.077       .  S
Fe1101     O1102   2.045   1_554  S
Fe1101     O1110   1.964       .  S
O1102      C1109   1.265       .  A
O1103      C1117   1.271       .  A
O1104      C1109   1.270       .  A
O1105      C1108   1.266       .  A
O1106      C1118   1.269   1_554  A
O1107      C1120   1.266       .  A
C1108      O1113   1.270       .  A
C1108      C1492   1.433       .  S
C1109      C1488   1.430       .  S
O1111      C1114   1.270   1_554  A
O1112      C1114   1.264       .  A
C1114      C1485   1.433       .  S
O1115      C1120   1.271       .  A
O1116      C1118   1.264       .  A
C1117      O1119   1.266       .  A
C1117      C1499   1.434       .  S
C1118      C1483   1.430       .  S
C1120      C1507   1.435       .  S
C1121      C1122   1.415       .  A
C1121      C1126   1.411       .  A
C1121      C1479   1.498       .  S
C1122      C1123   1.402       .  A
C1122      H1127   1.082       .  S
C1123      C1477   1.440       .  S
C1123      C1124   1.393       .  A
C1124      C1125   1.396       .  A
C1124      H1128   1.085       .  S
C1125      C1475   1.441       .  S
C1125      C1126   1.407       .  A
C1126      H1129   1.084       .  S
C1130      C1131   1.416       .  A
C1130      C1135   1.405       .  A
C1130      C1480   1.490       .  S
C1131      C1132   1.413       .  A
C1131      H1136   1.083       .  S
C1132      C1524   1.446       .  S
C1132      C1133   1.400       .  A
C1133      C1134   1.394       .  A
C1133      H1137   1.085       .  S
C1134      C1486   1.438       .  S
C1134      C1135   1.396       .  A
C1135      H1138   1.085       .  S
C1139      C1140   1.408       .  A
C1139      C1144   1.413       .  A
C1139      C1472   1.492       .  S
C1140      C1141   1.404       .  A
C1140      H1145   1.084       .  S
C1141      C1467   1.437       .  S
C1141      C1142   1.397       .  A
C1142      C1143   1.394       .  A
C1142      H1146   1.085       .  S
C1143      C1469   1.439       .  S
C1143      C1144   1.401       .  A
C1144      H1147   1.083       .  S
C1148      C1153   1.402       .  A
C1148      C1471   1.482       .  S
C1149      C1150   1.409       .  A
C1149      H1154   1.083       .  S
C1150      C1522   1.441       .  S
C1150      C1151   1.399       .  A
C1151      H1155   1.085       .  S
C1152      C1484   1.435       .  S
C1152      C1153   1.394       .  A
C1153      H1156   1.085       .  S
C1157      C1460   1.435       .  S
C1157      C1158   1.397       .  A
C1157      C1162   1.403       .  A
C1158      C1159   1.394       .  A
C1158      H1163   1.085       .  S
C1159      C1462   1.439       .  S
C1159      C1160   1.401       .  A
C1160      C1161   1.413       .  A
C1160      H1164   1.082       .  S
C1161      C1162   1.407       .  A
C1161      C1464   1.491       .  S
C1162      H1165   1.084       .  S
C1166      C2775   1.414       .  A
C1166      C1171   1.403       .  A
C1166      C1463   1.484       .  S
C1167      C2774   1.414       .  A
C1167      C1168   1.410       .  A
C1167      H1172   1.083       .  S
C1168      C1520   1.444       .  S
C1168      C2777   1.400       .  A
C1169      C2776   1.400   1_455  A
C1169      C1170   1.395       .  A
C1169      H1173   1.085       .  S
C1170      C1487   1.436       .  S
C1170      C1171   1.395       .  A
C1171      H1174   1.085       .  S
Fe1175     O1191   2.096       .  S
Fe1175     O1181   2.039       .  S
Fe1175     O1188   2.046       .  S
Fe1175     O1180   2.094       .  S
Fe1175     O1186   1.959       .  S
Fe1176     O1179   2.094       .  S
Fe1176     O1183   2.036       .  S
Fe1176     O1187   2.092       .  S
Fe1176     O1192   2.042       .  S
Fe1176     O1186   1.958       .  S
Fe1177     O1195   2.040       .  S
Fe1177     O1182   2.093       .  S
Fe1177     O1189   2.094       .  S
Fe1177     O1178   2.049       .  S
Fe1177     O1186   1.961       .  S
O1178      C1185   1.265       .  A
O1179      C1193   1.273       .  A
O1180      C1185   1.274       .  A
O1181      C1184   1.262       .  A
O1182      C1194   1.273       .  A
O1183      C1196   1.261       .  A
C1184      O1189   1.272       .  A
C1184      C1461   1.433       .  S
C1185      C1455   1.437       .  S
O1187      C1190   1.274       .  A
O1188      C1190   1.264       .  A
C1190      C1457   1.436       .  S
O1191      C1196   1.273       .  A
O1192      C1194   1.263       .  A
C1193      O1195   1.263       .  A
C1193      C1470   1.433       .  S
C1194      C1453   1.434       .  S
C1196      C1478   1.433       .  S
C1197      C1446   1.443       .  S
C1197      C1198   1.409       .  A
C1197      C1202   1.402       .  A
C1198      C1199   1.413       .  A
C1198      H1203   1.083       .  S
C1199      C1200   1.403       .  A
C1199      C1449   1.485       .  S
C1200      C1201   1.395       .  A
C1200      H1204   1.085       .  S
C1201      C1448   1.438       .  S
C1201      C1202   1.395       .  A
C1202      H1205   1.085       .  S
C1206      C1207   1.412       .  A
C1206      C1211   1.415       .  A
C1206      C3058   1.500   1_455  S
C1207      C1208   1.407       .  A
C1207      H1212   1.084       .  S
C1208      C1458   1.440       .  S
C1208      C1209   1.395       .  A
C1209      C1210   1.392       .  A
C1209      H1213   1.085       .  S
C1210      C1444   1.438       .  S
C1210      C1211   1.400       .  A
C1211      H1214   1.080       .  S
Fe1215     O1231   2.056       .  S
Fe1215     O2829   2.081   1_455  S
Fe1215     O1228   2.083       .  S
Fe1215     O2828   2.047   1_455  S
Fe1215     O2030   1.963   1_455  S
Fe1216     O2827   2.050   1_455  S
Fe1216     O1227   2.041   1_565  S
Fe1216     O2840   2.088   1_455  S
Fe1216     O2834   1.962   1_465  S
Fe1217     O1235   2.089       .  S
Fe1217     O1222   2.044       .  S
Fe1217     O1226   1.964       .  S
O1218      C1225   1.270       .  A
O1219     Fe2824   2.050       .  S
O1219      C1233   1.264       .  A
O1220     Fe2823   2.046       .  S
O1220      C1225   1.264       .  A
O1221     Fe2823   2.089       .  S
O1221      C1224   1.274       .  A
O1222      C1234   1.265       .  A
O1223      C1236   1.273       .  A
C1224      O1229   1.267       .  A
C1224      C1437   1.435       .  S
C1225      C1447   1.433       .  S
O1226     Fe2019   1.961   1_565  S
O1226     Fe2824   1.961       .  S
O1228      C1230   1.270       .  A
C1230      C1433   1.430       .  S
O1231      C1236   1.267       .  A
O1232     Fe2824   2.092       .  S
O1232      C1234   1.273       .  A
C1233      O1235   1.271       .  A
C1233      C1441   1.437       .  S
C1234      C1435   1.433       .  S
C1236      C1439   1.438       .  S
C1237      C1238   1.410       .  A
C1237      C1242   1.413       .  A
C1237      C1429   1.494       .  S
C1238      C1239   1.406       .  A
C1238      H1243   1.084       .  S
C1239      C1454   1.440       .  S
C1239      C1240   1.397       .  A
C1240      C1241   1.394       .  A
C1240      H1244   1.085       .  S
C1241      C1427   1.440       .  S
C1241      C1242   1.401       .  A
C1242      H1245   1.083       .  S
C1246      C1425   1.443       .  S
C1246      C1247   1.400       .  A
C1246      C1251   1.410       .  A
C1247      C1248   1.394       .  A
C1247      H1252   1.085       .  S
C1248      C1436   1.439       .  S
C1248      C1249   1.397       .  A
C1249      C1250   1.405       .  A
C1249      H1253   1.085       .  S
C1250      C1251   1.414       .  A
C1250      C1430   1.486       .  S
C1251      H1254   1.083       .  S
C1255      C1256   1.403       .  A
C1255      C1260   1.414       .  A
C1255      C1421   1.486       .  S
C1256      C1257   1.395       .  A
C1256      H1261   1.085       .  S
C1257      C1420   1.434       .  S
C1257      C1258   1.392       .  A
C1258      C1259   1.399       .  A
C1258      H1262   1.085       .  S
C1259      C1456   1.441       .  S
C1259      C1260   1.410       .  A
C1260      H1263   1.083       .  S
C1264      C1418   1.441       .  S
C1264      C1265   1.400       .  A
C1264      C1269   1.407       .  A
C1265      C1266   1.394       .  A
C1265      H1270   1.085       .  S
C1266      C1434   1.436       .  S
C1266      C1267   1.395       .  A
C1267      C1268   1.403       .  A
C1267      H1271   1.085       .  S
C1268      C1269   1.413       .  A
C1269      H1272   1.083       .  S
Fe1273     O1289   2.047       .  S
Fe1273     O1286   2.089       .  S
Fe1273     O1278   2.040       .  S
Fe1273     O1284   1.959       .  S
Fe1274     O1277   2.046       .  S
Fe1274     O2889   2.096       .  S
Fe1274     O1285   2.038       .  S
Fe1274     O2892   1.957       .  S
Fe1275     O1293   2.080       .  S
Fe1275     O1280   2.041       .  S
Fe1275     O2895   2.047       .  S
Fe1275     O2884   2.083       .  S
Fe1275     O2088   1.962   1_565  S
O1276     Fe2883   2.083   1_455  S
O1276      C1283   1.269       .  A
O1279      C1282   1.271       .  A
O1280      C1292   1.264       .  A
O1281     Fe2882   2.093   1_455  S
O1281      C1294   1.274       .  A
C1282      O1287   1.265   1_455  A
C1282      C1459   1.429       .  S
C1283      C1419   1.429       .  S
O1284     Fe2882   1.957   1_455  S
O1284     Fe2079   1.960   1_455  S
O1285      C2896   1.261       .  A
O1286      C1288   1.271       .  A
O1287     Fe2883   2.046       .  S
C1288      O2893   1.262       .  A
C1288      C1443   1.431       .  S
O1289      C1294   1.265       .  A
O1290      C1292   1.274       .  A
C1291      O1293   1.269       .  A
C1291      C1468   1.432       .  S
C1292      C1428   1.434       .  S
C1294      C1476   1.436       .  S
Fe1295     O1311   2.090       .  S
Fe1295     O1301   2.042       .  S
Fe1295     O1308   2.050       .  S
Fe1295     O1300   2.088       .  S
Fe1295     O1306   1.961       .  S
Fe1296     O1299   2.083       .  S
Fe1296     O1303   2.039       .  S
Fe1296     O1307   2.080       .  S
Fe1296     O1312   2.042       .  S
Fe1296     O1306   1.958       .  S
Fe1297     O1315   2.043       .  S
Fe1297     O1302   2.090       .  S
Fe1297     O1309   2.089       .  S
Fe1297     O1298   2.049       .  S
Fe1297     O1306   1.960       .  S
O1298      C1305   1.265       .  A
O1299      C1313   1.270       .  A
O1300      C1305   1.272       .  A
O1301      C1304   1.264       .  A
O1302      C1314   1.273       .  A
O1303      C1316   1.262       .  A
C1304      O1309   1.272       .  A
C1304      C1412   1.431       .  S
C1305      C1588   1.435       .  S
O1307      C1310   1.271       .  A
O1308      C1310   1.265       .  A
C1310      C1572   1.432       .  S
O1311      C1316   1.271       .  A
O1312      C1314   1.264       .  A
C1313      O1315   1.263       .  A
C1313      C1416   1.430       .  S
C1314      C1578   1.432       .  S
C1316      C1413   1.431       .  S
C1317      C1318   1.409       .  A
C1317      C1322   1.412       .  A
C1317      C1407   1.493       .  S
C1318      C1319   1.405       .  A
C1318      H1323   1.084       .  S
C1319      C1608   1.438       .  S
C1319      C1320   1.397       .  A
C1320      C1321   1.393       .  A
C1320      H1324   1.085       .  S
C1321      C1411   1.437       .  S
C1321      C1322   1.400       .  A
C1322      H1325   1.082       .  S
C1326      C1327   1.413       .  A
C1326      C1331   1.404       .  A
C1326      C1408   1.486       .  S
C1327      C1328   1.409       .  A
C1327      H1332   1.083       .  S
C1328      C1440   1.443       .  S
C1328      C1329   1.401       .  A
C1329      C1330   1.395       .  A
C1329      H1333   1.085       .  S
C1330      C1405   1.439       .  S
C1330      C1331   1.396       .  A
C1331      H1334   1.085       .  S
C1335      C1606   1.442       .  S
C1335      C2944   1.397   1_455  A
C1335      C1340   1.407       .  A
C1336      C2943   1.397       .  A
C1336      C1337   1.393       .  A
C1336      H1341   1.085       .  S
C1337      C1415   1.436       .  S
C1337      C1338   1.398       .  A
C1338      C1339   1.410       .  A
C1338      H1342   1.083       .  S
C1339      C2948   1.410       .  A
C1339      C1401   1.492       .  S
C1340      C2947   1.411   1_455  A
C1340      H1343   1.084       .  S
C1344      C1345   1.412       .  A
C1344      C1349   1.405       .  A
C1344      C1402   1.484       .  S
C1345      C1346   1.408       .  A
C1345      H1350   1.083       .  S
C1346      C1442   1.442       .  S
C1346      C1347   1.401       .  A
C1347      C1348   1.395       .  A
C1347      H1351   1.085       .  S
C1348      C1400   1.439       .  S
C1348      C1349   1.397       .  A
C1349      H1352   1.085       .  S
C1353      C1603   1.438       .  S
C1353      C1358   1.404       .  A
C1354      C1355   1.393       .  A
C1354      H1359   1.085       .  S
C1355      C1414   1.437       .  S
C1355      C1356   1.399       .  A
C1356      C1357   1.411       .  A
C1356      H1360   1.083       .  S
C1357      C1395   1.491       .  S
C1358      H1361   1.084       .  S
C1362      C1438   1.440       .  S
C1362      C1363   1.407       .  A
C1362      C1367   1.400       .  A
C1363      C1364   1.412       .  A
C1363      H1368   1.083       .  S
C1364      C1365   1.404       .  A
C1364      C1396   1.484       .  S
C1365      C1366   1.396       .  A
C1365      H1369   1.085       .  S
C1366      C1393   1.438       .  S
C1366      C1367   1.395       .  A
C1367      H1370   1.085       .  S
Fe1371     O1387   2.087       .  S
Fe1371     O1377   2.056       .  S
Fe1371     O1384   2.046       .  S
Fe1371     O1376   2.087       .  S
Fe1371     O1382   1.965       .  S
Fe1372     O1375   2.085       .  S
Fe1372     O1379   2.055       .  S
Fe1372     O1383   2.088       .  S
Fe1372     O1388   2.044       .  S
Fe1372     O1382   1.964       .  S
Fe1373     O1391   2.056       .  S
Fe1373     O1378   2.087       .  S
Fe1373     O1385   2.085       .  S
Fe1373     O1374   2.045       .  S
Fe1373     O1382   1.965       .  S
O1374      C1381   1.265       .  A
O1375      C1389   1.273       .  A
O1376      C1381   1.271       .  A
O1377      C1380   1.266       .  A
O1378      C1390   1.270       .  A
O1379      C1392   1.265       .  A
C1380      O1385   1.272       .  A
C1380      C1445   1.438       .  S
C1381      C1394   1.432       .  S
O1383      C1386   1.271       .  A
O1384      C1386   1.264       .  A
C1386      C1399   1.434       .  S
O1387      C1392   1.272       .  A
O1388      C1390   1.263       .  A
C1389      O1391   1.267       .  A
C1389      C1417   1.436       .  S
C1390      C1406   1.433       .  S
C1392      C1426   1.439       .  S
C1393      C1394   1.204       .  T
C1395      C1396   1.347       .  D
C1395      H1397   1.086       .  S
C1396      H1398   1.085       .  S
C1399      C1400   1.205       .  T
C1401      C1402   1.348       .  D
C1401      H1403   1.086       .  S
C1402      H1404   1.086       .  S
C1405      C1406   1.205       .  T
C1407      C1408   1.347       .  D
C1407      H1409   1.086       .  S
C1408      H1410   1.085       .  S
C1411      C1412   1.204       .  T
C1413      C1414   1.204       .  T
C1415      C1416   1.203       .  T
C1417      C1418   1.207       .  T
C1419      C1420   1.202       .  T
C1421      C1422   1.347       .  D
C1421      H1423   1.084       .  S
C1422      H1424   1.086       .  S
C1425      C1426   1.208       .  T
C1427      C1428   1.206       .  T
C1429      C1430   1.347       .  D
C1429      H1431   1.086       .  S
C1430      H1432   1.086       .  S
C1433      C1434   1.203       .  T
C1435      C1436   1.205       .  T
C1437      C1438   1.206       .  T
C1439      C1440   1.208       .  T
C1441      C1442   1.207       .  T
C1443      C1444   1.204       .  T
C1445      C1446   1.208       .  T
C1447      C1448   1.205       .  T
C1449      C1450   1.348       .  D
C1449      H1451   1.084       .  S
C1450      C2814   1.494       .  S
C1450      H3060   1.086       .  S
H1452      C3058   1.086       .  S
C1453      C1454   1.206       .  T
C1455      C1456   1.207       .  T
C1457      C1458   1.206       .  T
C1459      C1460   1.203       .  T
C1461      C1462   1.205       .  T
C1463      C1464   1.345       .  D
C1463      H1465   1.085       .  S
C1464      H1466   1.086       .  S
C1467      C1468   1.204       .  T
C1469      C1470   1.205       .  T
C1471      C1472   1.345       .  D
C1471      H1473   1.085       .  S
C1472      H1474   1.086   1_565  S
C1475      C1476   1.207       .  T
C1477      C1478   1.206       .  T
C1479      C1480   1.349       .  D
C1479      H1481   1.086       .  S
C1480      H1482   1.085       .  S
C1483      C1484   1.203       .  T
C1485      C1486   1.205       .  T
C1487      C1488   1.203       .  T
C1489      C1490   1.203       .  T
C1491      C1492   1.205       .  T
C1493      C1494   1.345       .  D
C1493      H1495   1.086       .  S
C1494      H1496   1.085       .  S
C1497      C1498   1.206       .  T
C1499      C1500   1.206       .  T
C1501      C1502   1.347       .  D
C1501      H1503   1.087       .  S
C1502      H1504   1.087       .  S
C1505      C1506   1.207       .  T
C1507      C1508   1.206       .  T
C1509      C1510   1.346       .  D
C1509      H1511   1.085       .  S
C1510      H1512   1.086       .  S
C1513      C1514   1.204       .  T
C1515      C1516   1.207       .  T
C1517      C1518   1.208       .  T
C1519      C1520   1.209       .  T
C1521      C1522   1.207       .  T
C1523      C1524   1.210       .  T
C1525      C1526   1.209       .  T
C1527      C1528   1.206       .  T
C1529      C2578   1.484       .  S
C1529      C1530   1.346   1_655  D
C1529      H1531   1.085   1_655  S
C1530      H1532   1.086       .  S
C1533      C1534   1.206       .  T
C1535      C1536   1.207       .  T
C1537      C1538   1.344       .  D
C1537      H1539   1.087       .  S
C1538      H1540   1.087       .  S
C1541      C1542   1.203       .  T
C1543      C1544   1.204       .  T
C1545      C1546   1.206       .  T
C1547      C1548   1.208       .  T
C1549      C1550   1.207       .  T
C1551      C1552   1.207       .  T
C1553      C1554   1.203       .  T
C1555      C1556   1.205       .  T
C1557      C1558   1.347       .  D
C1557      H1559   1.086       .  S
C1558      H1560   1.085       .  S
C1561      C1562   1.206       .  T
C1563      C1564   1.204       .  T
C1565      C1566   1.205       .  T
C1567      C1568   1.206       .  T
C1569      C1570   1.202       .  T
C1571      C1572   1.204       .  T
C1573      C1574   1.345       .  D
C1573      H1575   1.084       .  S
C1574      H1576   1.086       .  S
C1577      C1578   1.204       .  T
C1579      C1580   1.205       .  T
C1581      C1582   1.203       .  T
C1583      C1584   1.338       .  D
C1583      H1585   1.088       .  S
C1584      H1586   1.086       .  S
C1587      C1588   1.206       .  T
C1589      C1590   1.208       .  T
C1591      C1592   1.205       .  T
C1593      C1594   1.346       .  D
C1593      H1595   1.086       .  S
C1594      H1596   1.086       .  S
C1597      C1598   1.203       .  T
C1599      C1600   1.203       .  T
C1601      C1602   1.206       .  T
C1603      C1604   1.205       .  T
C1605      C1606   1.207       .  T
C1607      C1608   1.204       .  T
Fe1609     O1625   2.039       .  S
Fe1609     O1615   2.090       .  S
Fe1609     O1622   2.089       .  S
Fe1609     O1614   2.044       .  S
Fe1609     O1620   1.962       .  S
Fe1610     O1613   2.041       .  S
Fe1610     O1617   2.086       .  S
Fe1610     O1621   2.051       .  S
Fe1610     O1626   2.083       .  S
Fe1610     O1620   1.961       .  S
Fe1611     O1629   2.086       .  S
Fe1611     O1616   2.049       .  S
Fe1611     O1623   2.044       .  S
Fe1611     O1612   2.085       .  S
Fe1611     O1620   1.962       .  S
O1612      C1619   1.272       .  A
O1613      C1627   1.263       .  A
O1614      C1619   1.264       .  A
O1615      C1618   1.272       .  A
O1616      C1628   1.265       .  A
O1617      C1630   1.270       .  A
C1618      O1623   1.263       .  A
C1618      C2405   1.434       .  S
C1619      C2411   1.432       .  S
O1621      C1624   1.265       .  A
O1622      C1624   1.273       .  A
C1624      C2409   1.437       .  S
O1625      C1630   1.262       .  A
O1626      C1628   1.271       .  A
C1627      O1629   1.271       .  A
C1627      C2404   1.430       .  S
C1628      C2408   1.433       .  S
C1630      C2402   1.430       .  S
C1631      C2393   1.442       .  S
C1631      C1632   1.399       .  A
C1631      C1636   1.407       .  A
C1632      C1633   1.396       .  A
C1632      H1637   1.085       .  S
C1633      C2395   1.438       .  S
C1633      C1634   1.399       .  A
C1634      C1635   1.403       .  A
C1634      H1638   1.085       .  S
C1635      C1636   1.409       .  A
C1635      C2397   1.476       .  S
C1636      H1639   1.084       .  S
C1640      C2391   1.440       .  S
C1640      C1641   1.397       .  A
C1640      C1645   1.405       .  A
C1641      C1642   1.394       .  A
C1641      H1646   1.085       .  S
C1642      C2406   1.440       .  S
C1642      C1643   1.401       .  A
C1643      C1644   1.413       .  A
C1643      H1647   1.081       .  S
C1644      C1645   1.410       .  A
C1644      C2398   1.494       .  S
C1645      H1648   1.084       .  S
C1649      C2383   1.443       .  S
C1649      C1650   1.411       .  A
C1649      C1654   1.400       .  A
C1650      C1651   1.414       .  A
C1650      H1655   1.083       .  S
C1651      C1652   1.404       .  A
C1651      C2387   1.486       .  S
C1652      C1653   1.396       .  A
C1652      H1656   1.085       .  S
C1653      C2386   1.438       .  S
C1653      C1654   1.394       .  A
C1654      H1657   1.085       .  S
C1658      C2381   1.440       .  S
C1658      C1659   1.408       .  A
C1659      H1664   1.084       .  S
C1660      C1661   1.411       .  A
C1660      C2388   1.495       .  S
C1661      C1662   1.398       .  A
C1661      H1665   1.083       .  S
C1662      C2401   1.436       .  S
C1662      C1663   1.391       .  A
C1663      H1666   1.085       .  S
C1667      C2375   1.436       .  S
C1667      C1668   1.397   1_545  A
C1667      C1672   1.403       .  A
C1668      C2473   1.393       .  A
C1668      H1673   1.085   1_565  S
C1669      C2403   1.436       .  S
C1669      C2472   1.394       .  A
C1669      C1670   1.398       .  A
C1670      C1671   1.411       .  A
C1670      H1674   1.082       .  S
C1671      C2476   1.407       .  A
C1671      C2378   1.489       .  S
C1672      C2475   1.408   1_545  A
C1672      H1675   1.084       .  S
C1676      C2371   1.439       .  S
C1676      C1677   1.407       .  A
C1676      C1681   1.401       .  A
C1677      C1678   1.411       .  A
C1677      H1682   1.083       .  S
C1678      C1679   1.401       .  A
C1678      C2377   1.479       .  S
C1679      C1680   1.394       .  A
C1679      H1683   1.085       .  S
C1680      C2373   1.434       .  S
C1680      C1681   1.395       .  A
C1681      H1684   1.085       .  S
Fe1685     O1701   2.058       .  S
Fe1685     O1691   2.084       .  S
Fe1685     O1698   2.085       .  S
Fe1685     O1690   2.047       .  S
Fe1685     O1696   1.965       .  S
Fe1686     O1689   2.053       .  S
Fe1686     O1693   2.086       .  S
Fe1686     O1697   2.044       .  S
Fe1686     O1702   2.087       .  S
Fe1686     O1696   1.964       .  S
Fe1687     O1705   2.073       .  S
Fe1687     O1692   2.046       .  S
Fe1687     O1699   2.053       .  S
Fe1687     O1688   2.074       .  S
Fe1687     O1696   1.967       .  S
O1688      C1695   1.267       .  A
O1689      C1703   1.265       .  A
O1690      C1695   1.263       .  A
O1691      C1694   1.273       .  A
O1692      C1704   1.265       .  A
O1693      C1706   1.272       .  A
C1694      O1699   1.267       .  A
C1694      C2368   1.434       .  S
C1695      C2374   1.429       .  S
O1697      C1700   1.263       .  A
O1698      C1700   1.270       .  A
C1700      C2396   1.433       .  S
O1701      C1706   1.266       .  A
O1702      C1704   1.272       .  A
C1703      O1705   1.268       .  A
C1703      C2370   1.432       .  S
C1704      C2385   1.432       .  S
C1706      C2366   1.439       .  S
C1707      C2365   1.443       .  S
C1707      C1708   1.410       .  A
C1707      C1712   1.400       .  A
C1708      C1709   1.414       .  A
C1708      H1713   1.083       .  S
C1709      C1710   1.402       .  A
C1709      C3165   1.484       .  S
C1710      C1711   1.394       .  A
C1710      H1714   1.085       .  S
C1711      C2360   1.434       .  S
C1711      C1712   1.394       .  A
C1712      H1715   1.085       .  S
C1716      C1717   1.404       .  A
C1716      C1721   1.413       .  A
C1716      C2362   1.485       .  S
C1717      C1718   1.396       .  A
C1717      H1722   1.085       .  S
C1718      C2357   1.435       .  S
C1718      C1719   1.392       .  A
C1719      C1720   1.399       .  A
C1719      H1723   1.085       .  S
C1720      C2355   1.440       .  S
C1720      C1721   1.408       .  A
C1721      H1724   1.083       .  S
Fe1725     O2545   2.093       .  S
Fe1725     O1731   2.050       .  S
Fe1725     O2542   2.042       .  S
Fe1725     O1730   2.094       .  S
Fe1726     O1729   2.082       .  S
Fe1726     O1737   2.083       .  S
Fe1726     O1742   2.046       .  S
Fe1726     O1736   1.968       .  S
Fe1727     O2549   2.054       .  S
Fe1727     O2536   2.087       .  S
Fe1727     O1739   2.087       .  S
Fe1727     O2540   1.962       .  S
O1728      C1735   1.263   1_455  A
O1729      C1743   1.271       .  A
O1730      C1735   1.273       .  A
O1731      C1734   1.265       .  A
O1732     Fe2531   2.082   1_545  S
O1732      C1744   1.270       .  A
O1733      C1746   1.265   1_455  A
C1734      C2350   1.436       .  S
C1735      C2345   1.434       .  S
O1736     Fe2531   1.964   1_545  S
O1738     Fe2529   2.044   1_545  S
O1738      C1740   1.264       .  A
C1740      C2358   1.430       .  S
O1741     Fe2529   2.076   1_545  S
O1741      C1746   1.270       .  A
O1742      C1744   1.263       .  A
C1743      O1745   1.266       .  A
C1743      C2351   1.435       .  S
C1744      C2347   1.432       .  S
O1745     Fe2531   2.054   1_545  S
C1746      C2353   1.433       .  S
C1747      C1748   1.404       .  A
C1747      C1752   1.406       .  A
C1747      C2341   1.475       .  S
C1748      C1749   1.401       .  A
C1748      H1753   1.084       .  S
C1749      C2369   1.438       .  S
C1749      C1750   1.400       .  A
C1750      C1751   1.398       .  A
C1750      H1754   1.085       .  S
C1751      C2340   1.441       .  S
C1751      C1752   1.402       .  A
C1752      H1755   1.084       .  S
C1756      C1757   1.406       .  A
C1756      C1761   1.406       .  A
C1756      C2342   1.478       .  S
C1757      C1758   1.403       .  A
C1757      H1762   1.084       .  S
C1758      C2337   1.438       .  S
C1758      C1759   1.399       .  A
C1759      C1760   1.395       .  A
C1759      H1763   1.085       .  S
C1760      C2348   1.437       .  S
C1760      C1761   1.399       .  A
C1761      H1764   1.084       .  S
C1765      C1766   1.412       .  A
C1765      C1770   1.403       .  A
C1765      C2334   1.484       .  S
C1766      C1767   1.407       .  A
C1766      H1771   1.083       .  S
C1767      C2367   1.440       .  S
C1767      C1768   1.400       .  A
C1768      C1769   1.394       .  A
C1768      H1772   1.085       .  S
C1769      C2331   1.437       .  S
C1769      C1770   1.396       .  A
C1770      H1773   1.085       .  S
C1774      C1775   1.412       .  A
C1774      C1779   1.409       .  A
C1775      C1776   1.401       .  A
C1775      H1780   1.082   1_655  S
C1776      C2346   1.440       .  S
C1776      C1777   1.395       .  A
C1777      C1778   1.398       .  A
C1777      H1781   1.085       .  S
C1778      C2330   1.440       .  S
C1778      C1779   1.405       .  A
C1779      H1782   1.084       .  S
Fe1783     O1789   2.038       .  S
Fe1783     O1788   2.092   1_545  S
Fe1784     O1787   2.096       .  S
Fe1784     O1791   2.043       .  S
Fe1784     O1795   2.097       .  S
Fe1784     O2604   2.053       .  S
Fe1784     O1794   1.962       .  S
Fe1785     O1797   2.076       .  S
Fe1785     O1786   2.052       .  S
O1786      C1793   1.267       .  A
O1787      C2605   1.273   1_545  A
O1788      C2597   1.274       .  A
O1789      C2596   1.261   1_545  A
O1790      C1802   1.272       .  A
O1791      C1804   1.263       .  A
C1792      O2593   1.262       .  A
C1792      O1797   1.267       .  A
C1792      C2359   1.429       .  S
C1793      O2592   1.275       .  A
C1793      C2394   1.437       .  S
O1795      C1798   1.274       .  A
O1796      C1798   1.264       .  A
C1798      C2384   1.438       .  S
O1799      C1804   1.273       .  A
O1800     Fe2588   2.051       .  S
O1800      C1802   1.265       .  A
C1801      O2591   1.271       .  A
C1801      O1803   1.264       .  A
C1801      C2332   1.431       .  S
C1802      C2372   1.434       .  S
C1804      C2339   1.435       .  S
Fe1805     O1821   2.042   1_556  S
Fe1805     O1811   2.089   1_556  S
Fe1805     O1818   2.088       .  S
Fe1805     O1810   2.051       .  S
Fe1805     O1816   1.964       .  S
Fe1806     O1809   2.040   1_556  S
Fe1806     O1813   2.094   1_556  S
Fe1806     O1817   2.051       .  S
Fe1806     O1822   2.092       .  S
Fe1806     O1816   1.960       .  S
Fe1807     O1825   2.097   1_556  S
Fe1807     O1812   2.054       .  S
Fe1807     O1819   2.044   1_556  S
Fe1807     O1808   2.096       .  S
Fe1807     O1816   1.961       .  S
O1808      C1815   1.274       .  A
O1809      C1823   1.262       .  A
O1810      C1815   1.265       .  A
O1811      C1814   1.271       .  A
O1812      C1824   1.267       .  A
O1813      C1826   1.273       .  A
C1814      O1819   1.264       .  A
C1814      C2318   1.432       .  S
C1815      C2327   1.440       .  S
O1817      C1820   1.265       .  A
O1818      C1820   1.272       .  A
C1820      C2325   1.437       .  S
O1821      C1826   1.263       .  A
O1822      C1824   1.274       .  A
C1823      O1825   1.272       .  A
C1823      C2321   1.436       .  S
C1824      C2323   1.439       .  S
C1826      C2319   1.435       .  S
C1827      C2312   1.441       .  S
C1827      C1828   1.400       .  A
C1827      C1832   1.408       .  A
C1828      C1829   1.394       .  A
C1828      H1833   1.085       .  S
C1829      C2317   1.438       .  S
C1829      C1830   1.397       .  A
C1830      C1831   1.405       .  A
C1830      H1834   1.085       .  S
C1831      C1832   1.413       .  A
C1831      C2313   1.486       .  S
C1832      H1835   1.083       .  S
C1836      C2349   1.442       .  S
C1836      C1837   1.405       .  A
C1836      C1841   1.399       .  A
C1837      C1838   1.409       .  A
C1837      H1842   1.084       .  S
C1838      C1839   1.412       .  A
C1838      C2314   1.493       .  S
C1839      C1840   1.401       .  A
C1839      H1843   1.082       .  S
C1840      C2310   1.442       .  S
C1840      C1841   1.397       .  A
C1841      H1844   1.085       .  S
C1845      C1846   1.407       .  A
C1845      C2654   1.406   1_545  A
C1845      C2306   1.479       .  S
C1846      C1847   1.403       .  A
C1846      H1851   1.084       .  S
C1847      C2320   1.441       .  S
C1847      C1848   1.396       .  A
C1848      C2653   1.399   1_545  A
C1848      H1852   1.085       .  S
C1849      C2304   1.440       .  S
C1849      C2652   1.398       .  A
C1849      C1850   1.404       .  A
C1850      C2649   1.409       .  A
C1850      H1853   1.084       .  S
C1854      C2352   1.440       .  S
C1854      C1855   1.405       .  A
C1854      C1859   1.398       .  A
C1855      C1856   1.408       .  A
C1855      H1860   1.084       .  S
C1856      C1857   1.407       .  A
C1856      C2305   1.481       .  S
C1857      C1858   1.401       .  A
C1857      H1861   1.084       .  S
C1858      C2301   1.438       .  S
C1858      C1859   1.395       .  A
C1859      H1862   1.085       .  S
C1863      C2295   1.438       .  S
C1863      C1864   1.399       .  A
C1863      C1868   1.400       .  A
C1864      H1869   1.085       .  S
C1865      C2322   1.442       .  S
C1865      C1866   1.402       .  A
C1866      C1867   1.412       .  A
C1866      H1870   1.082       .  S
C1867      C2297   1.488       .  S
C1868      H1871   1.084       .  S
C1872      C2354   1.438       .  S
C1872      C1873   1.405       .  A
C1872      C1877   1.399       .  A
C1873      C1874   1.412       .  A
C1873      H1878   1.083       .  S
C1874      C1875   1.403       .  A
C1874      C2298   1.482       .  S
C1875      C1876   1.396       .  A
C1875      H1879   1.085       .  S
C1876      C2293   1.434       .  S
C1876      C1877   1.394       .  A
C1877      H1880   1.085       .  S
Fe1881     O1897   2.049       .  S
Fe1881     O1887   2.090       .  S
Fe1881     O1894   2.092       .  S
Fe1881     O1886   2.044       .  S
Fe1881     O1892   1.960       .  S
Fe1882     O1885   2.053       .  S
Fe1882     O1889   2.088       .  S
Fe1882     O1893   2.043       .  S
Fe1882     O1898   2.090       .  S
Fe1882     O1892   1.960       .  S
Fe1883     O1901   2.077       .  S
Fe1883     O1888   2.042       .  S
Fe1883     O1895   2.049       .  S
Fe1883     O1884   2.080       .  S
Fe1883     O1892   1.965       .  S
O1884      C1891   1.269       .  A
O1885      C1899   1.264       .  A
O1886      C1891   1.264       .  A
O1887      C1890   1.273       .  A
O1888      C1900   1.264       .  A
O1889      C1902   1.273       .  A
C1890      O1895   1.265       .  A
C1890      C2356   1.435       .  S
C1891      C2294   1.429       .  S
O1893      C1896   1.263       .  A
O1894      C1896   1.271       .  A
C1896      C2309   1.435       .  S
O1897      C1902   1.266       .  A
O1898      C1900   1.273       .  A
C1899      O1901   1.269       .  A
C1899      C2338   1.433       .  S
C1900      C2302   1.433       .  S
C1902      C2329   1.435       .  S
Fe1903     O1919   2.083       .  S
Fe1903     O1909   2.053       .  S
Fe1903     O1916   2.046   1_554  S
Fe1903     O1908   2.085   1_554  S
Fe1903     O1914   1.963       .  S
Fe1904     O1907   2.086       .  S
Fe1904     O1911   2.055       .  S
Fe1904     O1915   2.086       .  S
Fe1904     O1920   2.046   1_554  S
Fe1904     O1914   1.965       .  S
Fe1905     O1923   2.053       .  S
Fe1905     O1910   2.077       .  S
Fe1905     O1917   2.075       .  S
Fe1905     O1906   2.045   1_554  S
Fe1905     O1914   1.963       .  S
O1906      C1913   1.264       .  A
O1907      C1921   1.272       .  A
O1908      C1913   1.270       .  A
O1909      C1912   1.266       .  A
O1910      C1922   1.268   1_554  A
O1911      C1924   1.266       .  A
C1912      O1917   1.269       .  A
C1912      C2296   1.431       .  S
C1913      C2292   1.431       .  S
O1915      C1918   1.271   1_554  A
O1916      C1918   1.264       .  A
C1918      C2289   1.433       .  S
O1919      C1924   1.271       .  A
O1920      C1922   1.264       .  A
C1921      O1923   1.266       .  A
C1921      C2303   1.435       .  S
C1922      C2287   1.430       .  S
C1924      C2311   1.436       .  S
C1925      C1926   1.414       .  A
C1925      C1930   1.411       .  A
C1925      C2283   1.497       .  S
C1926      C1927   1.401       .  A
C1926      H1931   1.082       .  S
C1927      C2281   1.440       .  S
C1927      C1928   1.393       .  A
C1928      C1929   1.396       .  A
C1928      H1932   1.085       .  S
C1929      C2279   1.441       .  S
C1929      C1930   1.407       .  A
C1930      H1933   1.084       .  S
C1934      C1935   1.415       .  A
C1934      C1939   1.405       .  A
C1934      C2284   1.489       .  S
C1935      C1936   1.411       .  A
C1935      H1940   1.083       .  S
C1936      C2328   1.444       .  S
C1936      C1937   1.400       .  A
C1937      C1938   1.394       .  A
C1937      H1941   1.085       .  S
C1938      C2290   1.438       .  S
C1938      C1939   1.396       .  A
C1939      H1942   1.085       .  S
C1943      C1944   1.409       .  A
C1943      C1948   1.413       .  A
C1943      C2276   1.493       .  S
C1944      C1945   1.405       .  A
C1944      H1949   1.084       .  S
C1945      C2271   1.438       .  S
C1945      C1946   1.397       .  A
C1946      C1947   1.393       .  A
C1946      H1950   1.085       .  S
C1947      C2273   1.439       .  S
C1947      C1948   1.401       .  A
C1948      H1951   1.083       .  S
C1952      C2757   1.414       .  A
C1952      C1957   1.403       .  A
C1952      C2275   1.483       .  S
C1953      C2756   1.413   1_545  A
C1953      C1954   1.409       .  A
C1953      H1958   1.083       .  S
C1954      C2326   1.442       .  S
C1954      C1955   1.400       .  A
C1955      C2760   1.394   1_545  A
C1955      H1959   1.085       .  S
C1956      C2288   1.435       .  S
C1956      C2759   1.393       .  A
C1956      C1957   1.394       .  A
C1957      H1960   1.085       .  S
C1961      C2264   1.437       .  S
C1961      C1962   1.398       .  A
C1961      C1966   1.403       .  A
C1962      C1963   1.394       .  A
C1962      H1967   1.085       .  S
C1963      C2266   1.440       .  S
C1963      C1964   1.402       .  A
C1964      C1965   1.413       .  A
C1964      H1968   1.082       .  S
C1965      C1966   1.407       .  A
C1965      C2268   1.492       .  S
C1966      H1969   1.084       .  S
C1970      C1975   1.403       .  A
C1970      C2267   1.485       .  S
C1971      C1972   1.409   1_455  A
C1971      H1976   1.083   1_455  S
C1972      C2324   1.444       .  S
C1973      C1974   1.395       .  A
C1973      H1977   1.085       .  S
C1974      C2291   1.437       .  S
C1974      C1975   1.395       .  A
C1975      H1978   1.085       .  S
Fe1979     O1995   2.094       .  S
Fe1979     O1985   2.040       .  S
Fe1979     O1992   2.047       .  S
Fe1979     O1984   2.092       .  S
Fe1979     O1990   1.960       .  S
Fe1980     O1983   2.091       .  S
Fe1980     O1987   2.039       .  S
Fe1980     O1991   2.090       .  S
Fe1980     O1996   2.045       .  S
Fe1980     O1990   1.959       .  S
Fe1981     O1999   2.041       .  S
Fe1981     O1986   2.094       .  S
Fe1981     O1993   2.095       .  S
Fe1981     O1982   2.049       .  S
Fe1981     O1990   1.962       .  S
O1982      C1989   1.265       .  A
O1983      C1997   1.272       .  A
O1984      C1989   1.274       .  A
O1985      C1988   1.263       .  A
O1986      C1998   1.273       .  A
O1987      C2000   1.262       .  A
C1988      O1993   1.273       .  A
C1988      C2265   1.434       .  S
C1989      C2259   1.437       .  S
O1991      C1994   1.273       .  A
O1992      C1994   1.264       .  A
C1994      C2261   1.435       .  S
O1995      C2000   1.272       .  A
O1996      C1998   1.264       .  A
C1997      O1999   1.263       .  A
C1997      C2274   1.433       .  S
C1998      C2257   1.436       .  S
C2000      C2282   1.433       .  S
C2001      C2250   1.442       .  S
C2001      C2002   1.408       .  A
C2001      C2006   1.402       .  A
C2002      C2003   1.412       .  A
C2002      H2007   1.083       .  S
C2003      C2004   1.403       .  A
C2003      C2253   1.484       .  S
C2004      C2005   1.395       .  A
C2004      H2008   1.085       .  S
C2005      C2252   1.438       .  S
C2005      C2006   1.396       .  A
C2006      H2009   1.085       .  S
C2010      C2011   1.409       .  A
C2010      C2015   1.411       .  A
C2011      C2012   1.406       .  A
C2011      H2016   1.084       .  S
C2012      C2262   1.440       .  S
C2012      C2013   1.397       .  A
C2013      C2014   1.394       .  A
C2013      H2017   1.085       .  S
C2014      C2248   1.437       .  S
C2014      C2015   1.399       .  A
C2015      H2018   1.083       .  S
Fe2019     O2035   2.056       .  S
Fe2019     O2032   2.094       .  S
Fe2020     O2831   2.083       .  S
Fe2020     O2031   2.042       .  S
Fe2021     O2039   2.081       .  S
Fe2021     O2026   2.043       .  S
Fe2021     O2837   2.051       .  S
Fe2021     O2826   2.082       .  S
Fe2021     O2030   1.964       .  S
O2022     Fe2825   2.083   1_545  S
O2022      C2029   1.269       .  A
O2023      C2037   1.265       .  A
O2024      C2029   1.264       .  A
O2025      C2028   1.275       .  A
O2026      C2038   1.264       .  A
O2027     Fe2824   2.090   1_545  S
O2027      C2040   1.273       .  A
C2028      O2033   1.267       .  A
C2028      C2241   1.436       .  S
C2029      C2251   1.433       .  S
O2031      C2838   1.263       .  A
O2032      C2034   1.272       .  A
O2033     Fe2825   2.050   1_545  S
C2034      O2835   1.262       .  A
C2034      C2237   1.435       .  S
O2035      C2040   1.266       .  A
O2036      C2038   1.272       .  A
C2037      O2039   1.271       .  A
C2037      C2245   1.434       .  S
C2038      C2239   1.433       .  S
C2040      C2243   1.440       .  S
C2041      C2042   1.409       .  A
C2041      C2046   1.404       .  A
C2041      C2233   1.480       .  S
C2042      C2043   1.407       .  A
C2042      H2047   1.084       .  S
C2043      C2258   1.441       .  S
C2043      C2044   1.399       .  A
C2044      C2045   1.395       .  A
C2044      H2048   1.085       .  S
C2045      C2231   1.439       .  S
C2045      C2046   1.401       .  A
C2046      H2049   1.084       .  S
C2050      C2229   1.444       .  S
C2050      C2051   1.401       .  A
C2050      C2055   1.410       .  A
C2051      C2052   1.395       .  A
C2051      H2056   1.085       .  S
C2052      C2240   1.439       .  S
C2052      C2053   1.398       .  A
C2053      C2054   1.403       .  A
C2053      H2057   1.085       .  S
C2054      C2055   1.412       .  A
C2054      C2234   1.484       .  S
C2055      H2058   1.083       .  S
C2059      C2060   1.403       .  A
C2059      C2064   1.414       .  A
C2059      C2225   1.485       .  S
C2060      C2061   1.394       .  A
C2060      H2065   1.085       .  S
C2061      C2224   1.434       .  S
C2061      C2062   1.392       .  A
C2062      C2063   1.399       .  A
C2062      H2066   1.085       .  S
C2063      C2260   1.441       .  S
C2063      C2064   1.411       .  A
C2064      H2067   1.083       .  S
C2068      C2222   1.441       .  S
C2068      C2069   1.398       .  A
C2068      C2073   1.405       .  A
C2069      C2070   1.395       .  A
C2069      H2074   1.085       .  S
C2070      C2238   1.442       .  S
C2070      C2071   1.402       .  A
C2071      C2072   1.414       .  A
C2071      H2075   1.082       .  S
C2072      C2073   1.409       .  A
C2072      C3030   1.495   1_545  S
C2073      H2076   1.084       .  S
Fe2077     O2093   2.049       .  S
Fe2077     O2887   2.083   1_545  S
Fe2077     O2090   2.085       .  S
Fe2077     O2082   2.043   1_545  S
Fe2077     O2088   1.960       .  S
Fe2078     O2081   2.045       .  S
Fe2078     O2089   2.038   1_655  S
Fe2078     O2898   2.096   1_545  S
Fe2079     O2097   2.087       .  S
Fe2079     O2084   2.039       .  S
O2080      C2087   1.270       .  A
O2081      C2899   1.262   1_545  A
O2082      C2891   1.264       .  A
O2083     Fe2881   2.084       .  S
O2083      C2086   1.271       .  A
O2084      C2096   1.263       .  A
O2085      C2098   1.275       .  A
C2086      O2091   1.265       .  A
C2086      C2263   1.431       .  S
C2087      O2886   1.264       .  A
C2087      C2223   1.428       .  S
O2090      C2092   1.269       .  A
C2092      C2247   1.431       .  S
O2093      C2098   1.266       .  A
O2094     Fe2882   2.096       .  S
O2094      C2096   1.274       .  A
C2095      O2885   1.263       .  A
C2095      O2097   1.271       .  A
C2095      C2272   1.433       .  S
C2096      C2232   1.433       .  S
C2098      C2280   1.436       .  S
Fe2099     O2115   2.092       .  S
Fe2099     O2105   2.038       .  S
Fe2099     O2112   2.045       .  S
Fe2099     O2104   2.090       .  S
Fe2099     O2110   1.957       .  S
Fe2100     O2103   2.087       .  S
Fe2100     O2107   2.038       .  S
Fe2100     O2111   2.085       .  S
Fe2100     O2116   2.043       .  S
Fe2100     O2110   1.956       .  S
Fe2101     O2119   2.041       .  S
Fe2101     O2106   2.095       .  S
Fe2101     O2113   2.095       .  S
Fe2101     O2102   2.047       .  S
Fe2101     O2110   1.958       .  S
O2102      C2109   1.264       .  A
O2103      C2117   1.271       .  A
O2104      C2109   1.272       .  A
O2105      C2108   1.263       .  A
O2106      C2118   1.274       .  A
O2107      C2120   1.262       .  A
C2108      O2113   1.273       .  A
C2108      C2216   1.432       .  S
C2109      C2392   1.434       .  S
O2111      C2114   1.272       .  A
O2112      C2114   1.265       .  A
C2114      C2376   1.430       .  S
O2115      C2120   1.272       .  A
O2116      C2118   1.263       .  A
C2117      O2119   1.263       .  A
C2117      C2220   1.430       .  S
C2118      C2382   1.435       .  S
C2120      C2217   1.432       .  S
C2121      C2122   1.409       .  A
C2121      C2126   1.413       .  A
C2121      C2211   1.494       .  S
C2122      C2123   1.405       .  A
C2122      H2127   1.084       .  S
C2123      C2412   1.437       .  S
C2123      C2124   1.397       .  A
C2124      C2125   1.393       .  A
C2124      H2128   1.085       .  S
C2125      C2215   1.439       .  S
C2125      C2126   1.400       .  A
C2126      H2129   1.082       .  S
C2130      C2131   1.414       .  A
C2130      C2135   1.404       .  A
C2130      C2212   1.486       .  S
C2131      C2132   1.410       .  A
C2131      H2136   1.083       .  S
C2132      C2244   1.444       .  S
C2132      C2133   1.401       .  A
C2133      C2134   1.395       .  A
C2133      H2137   1.085       .  S
C2134      C2209   1.437       .  S
C2134      C2135   1.395       .  A
C2135      H2138   1.085       .  S
C2139      C2410   1.441       .  S
C2139      C2144   1.407       .  A
C2140      C2141   1.394       .  A
C2140      H2145   1.085   1_655  S
C2141      C2219   1.436       .  S
C2141      C2142   1.399       .  A
C2142      C2143   1.408       .  A
C2142      H2146   1.084       .  S
C2143      C2205   1.484       .  S
C2144      H2147   1.084       .  S
C2148      C2149   1.405       .  A
C2148      C2153   1.406       .  A
C2148      C2206   1.476       .  S
C2149      C2150   1.403       .  A
C2149      H2154   1.084       .  S
C2150      C2246   1.439       .  S
C2150      C2151   1.400       .  A
C2151      C2152   1.397       .  A
C2151      H2155   1.085       .  S
C2152      C2204   1.441       .  S
C2152      C2153   1.402       .  A
C2153      H2156   1.084       .  S
C2157      C2407   1.439       .  S
C2157      C2962   1.399       .  A
C2157      C2162   1.404       .  A
C2158      C2961   1.397   1_545  A
C2158      C2159   1.394       .  A
C2158      H2163   1.085       .  S
C2159      C2218   1.438       .  S
C2159      C2160   1.400       .  A
C2160      C2161   1.412       .  A
C2160      H2164   1.082       .  S
C2161      C2966   1.409   1_545  A
C2161      C2199   1.492       .  S
C2162      C2965   1.408       .  A
C2162      H2165   1.084       .  S
C2166      C2242   1.441       .  S
C2166      C2167   1.408       .  A
C2166      C2171   1.400       .  A
C2167      C2168   1.413       .  A
C2167      H2172   1.083       .  S
C2168      C2169   1.404       .  A
C2168      C2200   1.485       .  S
C2169      C2170   1.396       .  A
C2169      H2173   1.085       .  S
C2170      C2197   1.437       .  S
C2170      C2171   1.394       .  A
C2171      H2174   1.085       .  S
Fe2175     O2191   2.090       .  S
Fe2175     O2181   2.055       .  S
Fe2175     O2188   2.045       .  S
Fe2175     O2180   2.089       .  S
Fe2175     O2186   1.964       .  S
Fe2176     O2179   2.091       .  S
Fe2176     O2183   2.054       .  S
Fe2176     O2187   2.092       .  S
Fe2176     O2192   2.043       .  S
Fe2176     O2186   1.960       .  S
Fe2177     O2195   2.051       .  S
Fe2177     O2182   2.085       .  S
Fe2177     O2189   2.083       .  S
Fe2177     O2178   2.043       .  S
Fe2177     O2186   1.963       .  S
O2178      C2185   1.265       .  A
O2179      C2193   1.275       .  A
O2180      C2185   1.272       .  A
O2181      C2184   1.266       .  A
O2182      C2194   1.269       .  A
O2183      C2196   1.265       .  A
C2184      O2189   1.271       .  A
C2184      C2249   1.437       .  S
C2185      C2198   1.431       .  S
O2187      C2190   1.273       .  A
O2188      C2190   1.264       .  A
C2190      C2203   1.436       .  S
O2191      C2196   1.273       .  A
O2192      C2194   1.262       .  A
C2193      O2195   1.267       .  A
C2193      C2221   1.436       .  S
C2194      C2210   1.432       .  S
C2196      C2230   1.439       .  S
C2197      C2198   1.204       .  T
C2199      C2200   1.347       .  D
C2199      H2201   1.086       .  S
C2200      H2202   1.085       .  S
C2203      C2204   1.207       .  T
C2205      C2206   1.345       .  D
C2205      H2207   1.087       .  S
C2206      H2208   1.086       .  S
C2209      C2210   1.204       .  T
C2211      C2212   1.347       .  D
C2211      H2213   1.086       .  S
C2212      H2214   1.085       .  S
C2215      C2216   1.205       .  T
C2217      C2218   1.204       .  T
C2219      C2220   1.203       .  T
C2221      C2222   1.207       .  T
C2223      C2224   1.202       .  T
C2225      C2226   1.347       .  D
C2225      H2227   1.084       .  S
C2226      C2876   1.495       .  S
C2226      H2228   1.086       .  S
C2229      C2230   1.209       .  T
C2231      C2232   1.205       .  T
C2233      C2234   1.341       .  D
C2233      H2235   1.086       .  S
C2234      H2236   1.088       .  S
C2237      C2238   1.207       .  T
C2239      C2240   1.205       .  T
C2241      C2242   1.207       .  T
C2243      C2244   1.209       .  T
C2245      C2246   1.205       .  T
C2247      C2248   1.204       .  T
C2249      C2250   1.207       .  T
C2251      C2252   1.205       .  T
C2253      C2254   1.347   1_655  D
C2253      H2255   1.085       .  S
C2257      C2258   1.207       .  T
C2259      C2260   1.207       .  T
C2261      C2262   1.206       .  T
C2263      C2264   1.204       .  T
C2265      C2266   1.206       .  T
C2267      C2268   1.346       .  D
C2267      H2269   1.085       .  S
C2268      H2270   1.086       .  S
C2271      C2272   1.205       .  T
C2273      C2274   1.205       .  T
C2275      C2276   1.346       .  D
C2275      H2277   1.085       .  S
C2276      H2278   1.086       .  S
C2279      C2280   1.207       .  T
C2281      C2282   1.205       .  T
C2283      C2284   1.349       .  D
C2283      H2285   1.086       .  S
C2284      H2286   1.085       .  S
C2287      C2288   1.203       .  T
C2289      C2290   1.205       .  T
C2291      C2292   1.204       .  T
C2293      C2294   1.202       .  T
C2295      C2296   1.204       .  T
C2297      C2298   1.345       .  D
C2297      H2299   1.086       .  S
C2298      H2300   1.085       .  S
C2301      C2302   1.205       .  T
C2303      C2304   1.206       .  T
C2305      C2306   1.345       .  D
C2305      H2307   1.087       .  S
C2306      H2308   1.087       .  S
C2309      C2310   1.207       .  T
C2311      C2312   1.207       .  T
C2313      C2314   1.347       .  D
C2313      H2315   1.085       .  S
C2314      H2316   1.086       .  S
C2317      C2318   1.204       .  T
C2319      C2320   1.206       .  T
C2321      C2322   1.207       .  T
C2323      C2324   1.208       .  T
C2325      C2326   1.207       .  T
C2327      C2328   1.209       .  T
C2329      C2330   1.206       .  T
C2331      C2332   1.204       .  T
C2333      C2334   1.347       .  D
C2333      H2335   1.086       .  S
C2334      H2336   1.085       .  S
C2337      C2338   1.205       .  T
C2339      C2340   1.206       .  T
C2341      C2342   1.344       .  D
C2341      H2343   1.087       .  S
C2342      H2344   1.087       .  S
C2345      C2346   1.206       .  T
C2347      C2348   1.204       .  T
C2349      C2350   1.207       .  T
C2351      C2352   1.206       .  T
C2353      C2354   1.205       .  T
C2355      C2356   1.206       .  T
C2357      C2358   1.203       .  T
C2359      C2360   1.202       .  T
C2361      C2513   1.493   1_545  S
C2361      C2362   1.347       .  D
C2361      H2363   1.086       .  S
C2362      H2364   1.085       .  S
C2365      C2366   1.208       .  T
C2367      C2368   1.206       .  T
C2369      C2370   1.204       .  T
C2371      C2372   1.205       .  T
C2373      C2374   1.202       .  T
C2375      C2376   1.203       .  T
C2377      C2378   1.345       .  D
C2377      H2379   1.085       .  S
C2378      H2380   1.086       .  S
C2381      C2382   1.206       .  T
C2383      C2384   1.208       .  T
C2385      C2386   1.204       .  T
C2387      C2388   1.348       .  D
C2387      H2389   1.086       .  S
C2388      H2390   1.086       .  S
C2391      C2392   1.206       .  T
C2393      C2394   1.207       .  T
C2395      C2396   1.205       .  T
C2397      C2398   1.347       .  D
C2397      H2399   1.083       .  S
C2398      H2400   1.087       .  S
C2401      C2402   1.203       .  T
C2403      C2404   1.203       .  T
C2405      C2406   1.205       .  T
C2407      C2408   1.205       .  T
C2409      C2410   1.207       .  T
C2411      C2412   1.204       .  T
Fe2413     O2429   2.041       .  S
Fe2413     O2419   2.093       .  S
Fe2413     O2426   2.093       .  S
Fe2413     O2418   2.050       .  S
Fe2413     O2424   1.960       .  S
Fe2414     O2417   2.037       .  S
Fe2414     O2421   2.087       .  S
Fe2414     O2425   2.044       .  S
Fe2414     O2430   2.086       .  S
Fe2414     O2424   1.958       .  S
Fe2415     O2433   2.094       .  S
Fe2415     O2420   2.048       .  S
Fe2415     O2427   2.041       .  S
Fe2415     O2416   2.091       .  S
Fe2415     O2424   1.959       .  S
O2416      C2423   1.273       .  A
O2417      C2431   1.262       .  A
O2418      C2423   1.265       .  A
O2419      C2422   1.272       .  A
O2420      C2432   1.265       .  A
O2421      C2434   1.271       .  A
C2422      O2427   1.263       .  A
C2422      C3209   1.433       .  S
C2423      C3215   1.437       .  S
O2425      C2428   1.264       .  A
O2426      C2428   1.273       .  A
C2428      C3213   1.435       .  S
O2429      C2434   1.263       .  A
O2430      C2432   1.272       .  A
C2431      O2433   1.272       .  A
C2431      C3208   1.432       .  S
C2432      C3212   1.433       .  S
C2434      C3206   1.431       .  S
C2435      C3197   1.441       .  S
C2435      C2436   1.397       .  A
C2435      C2440   1.406       .  A
C2436      C2437   1.394       .  A
C2436      H2441   1.085       .  S
C2437      C3199   1.438       .  S
C2437      C2438   1.399       .  A
C2438      C2439   1.411       .  A
C2438      H2442   1.082       .  S
C2439      C2440   1.410       .  A
C2439      C3201   1.491       .  S
C2440      H2443   1.084       .  S
C2444      C3195   1.438       .  S
C2444      C2445   1.399       .  A
C2444      C2449   1.405       .  A
C2445      C2446   1.396       .  A
C2445      H2450   1.085       .  S
C2446      C3210   1.439       .  S
C2446      C2447   1.400       .  A
C2447      C2448   1.403       .  A
C2447      H2451   1.084       .  S
C2448      C2449   1.406       .  A
C2448      C3202   1.474       .  S
C2449      H2452   1.084       .  S
C2453      C3187   1.440       .  S
C2453      C2454   1.409       .  A
C2453      C2458   1.399       .  A
C2454      C2455   1.413       .  A
C2454      H2459   1.083       .  S
C2455      C2456   1.403       .  A
C2455      C3191   1.482       .  S
C2456      C2457   1.395       .  A
C2456      H2460   1.085       .  S
C2457      C3190   1.435       .  S
C2457      C2458   1.392       .  A
C2458      H2461   1.085       .  S
C2462      C3185   1.435       .  S
C2462      C2463   1.404       .  A
C2463      H2468   1.084       .  S
C2464      C2465   1.411       .  A
C2464      C3192   1.490       .  S
C2465      C2466   1.398       .  A
C2465      H2469   1.083       .  S
C2466      C3205   1.437       .  S
C2466      C2467   1.393       .  A
C2467      H2470   1.085       .  S
C2471      C3179   1.436       .  S
C2471      C2472   1.397       .  A
C2471      C2476   1.403       .  A
C2472      H2477   1.085       .  S
C2473      C3207   1.438       .  S
C2473      C2474   1.401       .  A
C2474      C2475   1.413       .  A
C2474      H2478   1.082       .  S
C2475      C3182   1.493       .  S
C2476      H2479   1.084       .  S
C2480      C3175   1.442       .  S
C2480      C2481   1.410       .  A
C2480      C2485   1.401       .  A
C2481      C2482   1.413       .  A
C2481      H2486   1.083       .  S
C2482      C2483   1.401       .  A
C2482      C3181   1.482       .  S
C2483      C2484   1.393       .  A
C2483      H2487   1.085       .  S
C2484      C3177   1.434       .  S
C2484      C2485   1.395       .  A
C2485      H2488   1.085       .  S
Fe2489     O2505   2.050       .  S
Fe2489     O2495   2.082       .  S
Fe2489     O2502   2.083       .  S
Fe2489     O2494   2.046       .  S
Fe2489     O2500   1.961       .  S
Fe2490     O2493   2.052       .  S
Fe2490     O2497   2.083       .  S
Fe2490     O2501   2.046       .  S
Fe2490     O2506   2.086       .  S
Fe2490     O2500   1.961       .  S
Fe2491     O2509   2.073       .  S
Fe2491     O2496   2.042       .  S
Fe2491     O2503   2.047       .  S
Fe2491     O2492   2.078       .  S
Fe2491     O2500   1.962       .  S
O2492      C2499   1.267       .  A
O2493      C2507   1.264       .  A
O2494      C2499   1.264       .  A
O2495      C2498   1.272       .  A
O2496      C2508   1.266       .  A
O2497      C2510   1.272       .  A
C2498      O2503   1.266       .  A
C2498      C3172   1.430       .  S
C2499      C3178   1.429       .  S
O2501      C2504   1.263       .  A
O2502      C2504   1.270       .  A
C2504      C3200   1.432       .  S
O2505      C2510   1.266       .  A
O2506      C2508   1.272       .  A
C2507      O2509   1.267       .  A
C2507      C3174   1.431       .  S
C2508      C3189   1.429       .  S
C2510      C3170   1.433       .  S
C2511      C3169   1.438       .  S
C2511      C2512   1.405       .  A
C2511      C2516   1.397       .  A
C2512      C2513   1.409       .  A
C2512      H2517   1.084       .  S
C2513      C2514   1.412       .  A
C2514      C2515   1.400       .  A
C2514      H2518   1.082   1_565  S
C2515      C3164   1.438       .  S
C2515      C2516   1.393       .  A
C2516      H2519   1.085       .  S
C2520      C2521   1.413       .  A
C2520      C2525   1.407       .  A
C2520      C3166   1.493       .  S
C2521      C2522   1.401       .  A
C2521      H2526   1.082       .  S
C2522      C3161   1.440       .  S
C2522      C2523   1.395       .  A
C2523      C2524   1.398       .  A
C2523      H2527   1.085       .  S
C2524      C3159   1.437       .  S
C2524      C2525   1.403       .  A
C2525      H2528   1.084       .  S
Fe2529     O2535   2.051       .  S
Fe2529     O2534   2.079       .  S
Fe2530     O2533   2.082       .  S
Fe2530     O2541   2.083       .  S
Fe2530     O2546   2.045       .  S
Fe2530     O2540   1.965       .  S
Fe2531     O2543   2.082       .  S
O2532      C2539   1.263   1_455  A
O2533      C2547   1.270       .  A
O2534      C2539   1.268       .  A
O2535      C2538   1.266       .  A
O2536      C2548   1.272       .  A
O2537      C2550   1.266   1_455  A
C2538      C3154   1.434       .  S
C2539      C3149   1.430       .  S
O2542      C2544   1.263       .  A
C2544      C3162   1.434       .  S
O2545      C2550   1.274       .  A
O2546      C2548   1.264       .  A
C2547      O2549   1.265       .  A
C2547      C3155   1.435       .  S
C2548      C3151   1.433       .  S
C2550      C3157   1.439       .  S
C2551      C2552   1.405       .  A
C2551      C2556   1.407       .  A
C2551      C3145   1.476       .  S
C2552      C2553   1.401       .  A
C2552      H2557   1.084       .  S
C2553      C3173   1.437       .  S
C2553      C2554   1.399       .  A
C2554      C2555   1.396       .  A
C2554      H2558   1.085       .  S
C2555      C3144   1.440       .  S
C2555      C2556   1.403       .  A
C2556      H2559   1.084       .  S
C2560      C2561   1.407       .  A
C2560      C2565   1.407       .  A
C2560      C3146   1.479       .  S
C2561      C2562   1.404       .  A
C2561      H2566   1.084       .  S
C2562      C3141   1.439       .  S
C2562      C2563   1.399       .  A
C2563      C2564   1.395       .  A
C2563      H2567   1.085       .  S
C2564      C3152   1.438       .  S
C2564      C2565   1.400       .  A
C2565      H2568   1.084       .  S
C2569      C2570   1.406       .  A
C2569      C2574   1.413       .  A
C2569      C3138   1.492       .  S
C2570      C2571   1.402       .  A
C2570      H2575   1.084       .  S
C2571      C3171   1.436       .  S
C2571      C2572   1.398       .  A
C2572      C2573   1.395       .  A
C2572      H2576   1.085       .  S
C2573      C3135   1.441       .  S
C2573      C2574   1.402       .  A
C2574      H2577   1.082       .  S
C2578      C2579   1.403       .  A
C2578      C2583   1.414       .  A
C2579      C2580   1.395       .  A
C2579      H2584   1.085       .  S
C2580      C3150   1.436       .  S
C2580      C2581   1.395       .  A
C2581      C2582   1.400       .  A
C2581      H2585   1.085       .  S
C2582      C3134   1.444       .  S
C2582      C2583   1.409       .  A
C2583      H2586   1.083       .  S
Fe2587     O2593   2.043       .  S
Fe2587     O2592   2.092       .  S
Fe2588     O2591   2.089       .  S
Fe2588     O2595   2.043       .  S
Fe2588     O2599   2.087       .  S
Fe2588     O2598   1.963       .  S
Fe2589     O2601   2.090       .  S
Fe2589     O2590   2.049       .  S
O2590      C2597   1.266       .  A
O2594      C2606   1.273       .  A
O2595      C2608   1.264       .  A
C2596      O2601   1.271       .  A
C2596      C3163   1.431       .  S
C2597      C3198   1.436       .  S
O2599      C2602   1.271       .  A
O2600      C2602   1.262       .  A
C2602      C3188   1.435       .  S
O2603      C2608   1.274       .  A
O2604      C2606   1.266   1_545  A
C2605      O2607   1.263       .  A
C2605      C3136   1.435       .  S
C2606      C3176   1.438       .  S
C2608      C3143   1.435       .  S
Fe2609     O2625   2.041   1_556  S
Fe2609     O2615   2.089   1_556  S
Fe2609     O2622   2.091       .  S
Fe2609     O2614   2.051       .  S
Fe2609     O2620   1.964       .  S
Fe2610     O2613   2.039   1_556  S
Fe2610     O2617   2.093   1_556  S
Fe2610     O2621   2.050       .  S
Fe2610     O2626   2.091       .  S
Fe2610     O2620   1.961       .  S
Fe2611     O2629   2.101   1_556  S
Fe2611     O2616   2.055       .  S
Fe2611     O2623   2.044   1_556  S
Fe2611     O2612   2.101       .  S
Fe2611     O2620   1.961       .  S
O2612      C2619   1.276       .  A
O2613      C2627   1.261       .  A
O2614      C2619   1.266       .  A
O2615      C2618   1.271       .  A
O2616      C2628   1.267       .  A
O2617      C2630   1.273       .  A
C2618      O2623   1.264       .  A
C2618      C3122   1.432       .  S
C2619      C3131   1.442       .  S
O2621      C2624   1.264       .  A
O2622      C2624   1.272       .  A
C2624      C3129   1.438       .  S
O2625      C2630   1.263       .  A
O2626      C2628   1.274       .  A
C2627      O2629   1.273       .  A
C2627      C3125   1.438       .  S
C2628      C3127   1.439       .  S
C2630      C3123   1.434       .  S
C2631      C3116   1.440       .  S
C2631      C2632   1.400       .  A
C2631      C2636   1.406       .  A
C2632      C2633   1.395       .  A
C2632      H2637   1.085       .  S
C2633      C3121   1.438       .  S
C2633      C2634   1.397       .  A
C2634      C2635   1.404       .  A
C2634      H2638   1.085       .  S
C2635      C2636   1.412       .  A
C2635      C3117   1.484       .  S
C2636      H2639   1.083       .  S
C2640      C3153   1.439       .  S
C2640      C2641   1.404       .  A
C2640      C2645   1.398       .  A
C2641      C2642   1.408       .  A
C2641      H2646   1.084       .  S
C2642      C2643   1.411       .  A
C2642      C3118   1.490       .  S
C2643      C2644   1.400       .  A
C2643      H2647   1.083       .  S
C2644      C3114   1.439       .  S
C2644      C2645   1.395       .  A
C2645      H2648   1.085       .  S
C2649      C2650   1.410       .  A
C2649      C3110   1.485       .  S
C2650      C2651   1.403       .  A
C2650      H2655   1.084       .  S
C2651      C3124   1.440       .  S
C2651      C2652   1.395       .  A
C2652      H2656   1.085       .  S
C2653      C3108   1.440       .  S
C2653      C2654   1.403       .  A
C2654      H2657   1.084       .  S
C2658      C3156   1.441       .  S
C2658      C2659   1.404       .  A
C2658      C2663   1.399       .  A
C2659      C2660   1.407       .  A
C2659      H2664   1.084       .  S
C2660      C2661   1.407       .  A
C2660      C3109   1.479       .  S
C2661      C2662   1.403       .  A
C2661      H2665   1.084       .  S
C2662      C3105   1.441       .  S
C2662      C2663   1.396       .  A
C2663      H2666   1.085       .  S
C2667      C3099   1.439       .  S
C2667      C2668   1.399       .  A
C2667      C2672   1.401       .  A
C2668      H2673   1.085       .  S
C2669      C3126   1.445       .  S
C2669      C2670   1.404       .  A
C2670      C2671   1.415       .  A
C2670      H2674   1.082       .  S
C2671      C3101   1.494       .  S
C2672      H2675   1.084       .  S
C2676      C3158   1.443       .  S
C2676      C2677   1.410       .  A
C2676      C2681   1.400       .  A
C2677      C2678   1.414       .  A
C2677      H2682   1.083       .  S
C2678      C2679   1.402       .  A
C2678      C3102   1.484       .  S
C2679      C2680   1.394       .  A
C2679      H2683   1.085       .  S
C2680      C3097   1.434       .  S
C2680      C2681   1.394       .  A
C2681      H2684   1.085       .  S
Fe2685     O2701   2.055       .  S
Fe2685     O2691   2.086       .  S
Fe2685     O2698   2.086       .  S
Fe2685     O2690   2.048       .  S
Fe2685     O2696   1.964       .  S
Fe2686     O2689   2.054       .  S
Fe2686     O2693   2.090       .  S
Fe2686     O2697   2.043       .  S
Fe2686     O2702   2.095       .  S
Fe2686     O2696   1.961       .  S
Fe2687     O2705   2.075       .  S
Fe2687     O2692   2.043       .  S
Fe2687     O2699   2.045       .  S
Fe2687     O2688   2.076       .  S
Fe2687     O2696   1.965       .  S
O2688      C2695   1.267       .  A
O2689      C2703   1.264       .  A
O2690      C2695   1.264       .  A
O2691      C2694   1.273       .  A
O2692      C2704   1.264       .  A
O2693      C2706   1.274       .  A
C2694      O2699   1.265       .  A
C2694      C3160   1.431       .  S
C2695      C3098   1.429       .  S
O2697      C2700   1.262       .  A
O2698      C2700   1.270       .  A
C2700      C3113   1.433       .  S
O2701      C2706   1.267       .  A
O2702      C2704   1.274       .  A
C2703      O2705   1.268       .  A
C2703      C3142   1.434       .  S
C2704      C3106   1.435       .  S
C2706      C3133   1.439       .  S
Fe2707     O2723   2.080       .  S
Fe2707     O2713   2.054       .  S
Fe2707     O2720   2.047   1_554  S
Fe2707     O2712   2.082   1_554  S
Fe2707     O2718   1.963       .  S
Fe2708     O2711   2.083       .  S
Fe2708     O2715   2.054       .  S
Fe2708     O2719   2.085       .  S
Fe2708     O2724   2.047   1_554  S
Fe2708     O2718   1.965       .  S
Fe2709     O2727   2.054       .  S
Fe2709     O2714   2.078       .  S
Fe2709     O2721   2.076       .  S
Fe2709     O2710   2.046   1_554  S
Fe2709     O2718   1.963       .  S
O2710      C2717   1.265       .  A
O2711      C2725   1.272       .  A
O2712      C2717   1.270       .  A
O2713      C2716   1.266       .  A
O2714      C2726   1.268   1_554  A
O2715      C2728   1.266       .  A
C2716      O2721   1.269       .  A
C2716      C3100   1.433       .  S
C2717      C3096   1.430       .  S
O2719      C2722   1.270   1_554  A
O2720      C2722   1.264       .  A
C2722      C3093   1.433       .  S
O2723      C2728   1.271       .  A
O2724      C2726   1.264       .  A
C2725      O2727   1.266       .  A
C2725      C3107   1.435       .  S
C2726      C3091   1.429       .  S
C2728      C3115   1.434       .  S
C2729      C2730   1.414       .  A
C2729      C2734   1.412       .  A
C2729      C3087   1.499       .  S
C2730      C2731   1.402       .  A
C2730      H2735   1.082       .  S
C2731      C3085   1.440       .  S
C2731      C2732   1.393       .  A
C2732      C2733   1.396       .  A
C2732      H2736   1.085       .  S
C2733      C3083   1.442       .  S
C2733      C2734   1.408       .  A
C2734      H2737   1.084       .  S
C2738      C2739   1.416       .  A
C2738      C2743   1.405       .  A
C2738      C3088   1.490       .  S
C2739      C2740   1.413       .  A
C2739      H2744   1.083       .  S
C2740      C3132   1.446       .  S
C2740      C2741   1.401       .  A
C2741      C2742   1.394       .  A
C2741      H2745   1.085       .  S
C2742      C3094   1.439       .  S
C2742      C2743   1.396       .  A
C2743      H2746   1.085       .  S
C2747      C2748   1.408       .  A
C2747      C2752   1.412       .  A
C2747      C3080   1.491       .  S
C2748      C2749   1.404       .  A
C2748      H2753   1.084       .  S
C2749      C3075   1.437       .  S
C2749      C2750   1.397       .  A
C2750      C2751   1.393       .  A
C2750      H2754   1.085       .  S
C2751      C3077   1.438       .  S
C2751      C2752   1.400       .  A
C2752      H2755   1.083       .  S
C2756      C2761   1.402       .  A
C2756      C3079   1.481       .  S
C2757      C2758   1.411       .  A
C2757      H2762   1.083       .  S
C2758      C3130   1.443       .  S
C2758      C2759   1.400       .  A
C2759      H2763   1.085       .  S
C2760      C3092   1.435       .  S
C2760      C2761   1.394       .  A
C2761      H2764   1.085       .  S
C2765      C3068   1.436       .  S
C2765      C2766   1.398       .  A
C2765      C2770   1.403       .  A
C2766      C2767   1.394       .  A
C2766      H2771   1.085       .  S
C2767      C3070   1.440       .  S
C2767      C2768   1.401       .  A
C2768      C2769   1.413       .  A
C2768      H2772   1.082       .  S
C2769      C2770   1.407       .  A
C2769      C3072   1.492       .  S
C2770      H2773   1.084       .  S
C2774      C2779   1.403       .  A
C2774      C3071   1.485       .  S
C2775      C2776   1.409   1_455  A
C2775      H2780   1.083   1_455  S
C2776      C3128   1.443       .  S
C2777      C2778   1.395       .  A
C2777      H2781   1.085       .  S
C2778      C3095   1.436       .  S
C2778      C2779   1.395       .  A
C2779      H2782   1.085       .  S
Fe2783     O2799   2.096       .  S
Fe2783     O2789   2.040       .  S
Fe2783     O2796   2.046       .  S
Fe2783     O2788   2.094       .  S
Fe2783     O2794   1.959       .  S
Fe2784     O2787   2.091       .  S
Fe2784     O2791   2.037       .  S
Fe2784     O2795   2.090       .  S
Fe2784     O2800   2.043       .  S
Fe2784     O2794   1.958       .  S
Fe2785     O2803   2.040       .  S
Fe2785     O2790   2.094       .  S
Fe2785     O2797   2.095       .  S
Fe2785     O2786   2.050       .  S
Fe2785     O2794   1.960       .  S
O2786      C2793   1.265       .  A
O2787      C2801   1.272       .  A
O2788      C2793   1.274       .  A
O2789      C2792   1.263       .  A
O2790      C2802   1.273       .  A
O2791      C2804   1.262       .  A
C2792      O2797   1.273       .  A
C2792      C3069   1.434       .  S
C2793      C3063   1.438       .  S
O2795      C2798   1.273       .  A
O2796      C2798   1.264       .  A
C2798      C3065   1.434       .  S
O2799      C2804   1.273       .  A
O2800      C2802   1.263       .  A
C2801      O2803   1.263       .  A
C2801      C3078   1.432       .  S
C2802      C3061   1.435       .  S
C2804      C3086   1.434       .  S
C2805      C3054   1.444       .  S
C2805      C2806   1.411       .  A
C2805      C2810   1.401       .  A
C2806      C2807   1.413       .  A
C2806      H2811   1.083       .  S
C2807      C2808   1.403       .  A
C2807      C3057   1.484       .  S
C2808      C2809   1.395       .  A
C2808      H2812   1.085       .  S
C2809      C3056   1.437       .  S
C2809      C2810   1.394       .  A
C2810      H2813   1.085       .  S
C2814      C2815   1.410       .  A
C2814      C2819   1.412       .  A
C2815      C2816   1.406       .  A
C2815      H2820   1.084       .  S
C2816      C3066   1.439       .  S
C2816      C2817   1.397       .  A
C2817      C2818   1.393       .  A
C2817      H2821   1.085       .  S
C2818      C3052   1.437       .  S
C2818      C2819   1.399       .  A
C2819      H2822   1.082       .  S
Fe2823     O2839   2.052       .  S
Fe2823     O2836   2.091       .  S
Fe2824     O2835   2.040   1_565  S
Fe2825     O2843   2.082       .  S
Fe2825     O2830   2.044       .  S
Fe2825     O2834   1.965   1_565  S
O2826      C2833   1.270       .  A
O2827      C2841   1.264       .  A
O2828      C2833   1.265       .  A
O2829      C2832   1.271       .  A
O2830      C2842   1.265       .  A
O2831      C2844   1.271       .  A
C2832      O2837   1.266       .  A
C2832      C3045   1.433       .  S
C2833      C3055   1.432       .  S
O2836      C2838   1.272       .  A
C2838      C3041   1.433       .  S
O2839      C2844   1.266       .  A
O2840      C2842   1.272       .  A
C2841      O2843   1.270       .  A
C2841      C3049   1.433       .  S
C2842      C3043   1.431       .  S
C2844      C3047   1.434       .  S
C2845      C2846   1.410       .  A
C2845      C2850   1.413       .  A
C2845      C3037   1.495       .  S
C2846      C2847   1.406       .  A
C2846      H2851   1.084       .  S
C2847      C3062   1.441       .  S
C2847      C2848   1.397       .  A
C2848      C2849   1.393       .  A
C2848      H2852   1.085       .  S
C2849      C3035   1.440       .  S
C2849      C2850   1.401       .  A
C2850      H2853   1.083       .  S
C2854      C3033   1.443       .  S
C2854      C2855   1.399       .  A
C2854      C2859   1.411       .  A
C2855      C2856   1.392       .  A
C2855      H2860   1.085       .  S
C2856      C3044   1.437       .  S
C2856      C2857   1.396       .  A
C2857      C2858   1.405       .  A
C2857      H2861   1.085       .  S
C2858      C2859   1.415       .  A
C2858      C3038   1.486       .  S
C2859      H2862   1.083       .  S
C2863      C2864   1.403       .  A
C2863      C2868   1.414       .  A
C2863      C3029   1.486       .  S
C2864      C2865   1.395       .  A
C2864      H2869   1.085       .  S
C2865      C3028   1.435       .  S
C2865      C2866   1.393       .  A
C2866      C2867   1.399       .  A
C2866      H2870   1.085       .  S
C2867      C3064   1.442       .  S
C2867      C2868   1.411       .  A
C2868      H2871   1.083       .  S
C2872      C3026   1.441       .  S
C2872      C2873   1.397       .  A
C2872      C2877   1.406       .  A
C2873      C2874   1.394       .  A
C2873      H2878   1.085       .  S
C2874      C3042   1.440       .  S
C2874      C2875   1.400       .  A
C2875      C2876   1.413       .  A
C2875      H2879   1.082       .  S
C2876      C2877   1.410       .  A
C2877      H2880   1.084       .  S
Fe2881     O2897   2.049       .  S
Fe2881     O2894   2.086       .  S
Fe2881     O2886   2.043       .  S
Fe2881     O2892   1.960       .  S
Fe2882     O2885   2.044       .  S
Fe2882     O2893   2.038   1_655  S
Fe2883     O2901   2.080       .  S
Fe2883     O2888   2.041       .  S
O2884      C2891   1.270       .  A
O2887      C2890   1.271       .  A
O2888      C2900   1.264       .  A
O2889      C2902   1.276       .  A
C2890      O2895   1.265       .  A
C2890      C3067   1.430       .  S
C2891      C3027   1.429       .  S
O2894      C2896   1.269       .  A
C2896      C3051   1.431       .  S
O2897      C2902   1.266       .  A
O2898      C2900   1.274       .  A
C2899      O2901   1.269       .  A
C2899      C3076   1.431       .  S
C2900      C3036   1.434       .  S
C2902      C3084   1.437       .  S
Fe2903     O2919   2.087       .  S
Fe2903     O2909   2.042       .  S
Fe2903     O2916   2.048       .  S
Fe2903     O2908   2.084       .  S
Fe2903     O2914   1.960       .  S
Fe2904     O2907   2.085       .  S
Fe2904     O2911   2.042       .  S
Fe2904     O2915   2.082       .  S
Fe2904     O2920   2.047       .  S
Fe2904     O2914   1.960       .  S
Fe2905     O2923   2.043       .  S
Fe2905     O2910   2.079       .  S
Fe2905     O2917   2.082       .  S
Fe2905     O2906   2.048       .  S
Fe2905     O2914   1.963       .  S
O2906      C2913   1.264       .  A
O2907      C2921   1.271       .  A
O2908      C2913   1.271       .  A
O2909      C2912   1.264       .  A
O2910      C2922   1.270       .  A
O2911      C2924   1.262       .  A
C2912      O2917   1.270       .  A
C2912      C3020   1.428       .  S
C2913      C3196   1.432       .  S
O2915      C2918   1.272       .  A
O2916      C2918   1.266       .  A
C2918      C3180   1.430       .  S
O2919      C2924   1.270       .  A
O2920      C2922   1.263       .  A
C2921      O2923   1.264       .  A
C2921      C3024   1.430       .  S
C2922      C3186   1.430       .  S
C2924      C3021   1.432       .  S
C2925      C2926   1.414       .  A
C2925      C2930   1.403       .  A
C2925      C3015   1.486       .  S
C2926      C2927   1.410       .  A
C2926      H2931   1.083       .  S
C2927      C3216   1.441       .  S
C2927      C2928   1.399       .  A
C2928      C2929   1.392       .  A
C2928      H2932   1.085       .  S
C2929      C3019   1.434       .  S
C2929      C2930   1.394       .  A
C2930      H2933   1.085       .  S
C2934      C2935   1.408       .  A
C2934      C2939   1.414       .  A
C2934      C3016   1.494       .  S
C2935      C2936   1.404       .  A
C2935      H2940   1.084       .  S
C2936      C3048   1.439       .  S
C2936      C2937   1.399       .  A
C2937      C2938   1.395       .  A
C2937      H2941   1.085       .  S
C2938      C3013   1.442       .  S
C2938      C2939   1.401       .  A
C2939      H2942   1.082       .  S
C2943      C3214   1.440       .  S
C2943      C2948   1.407       .  A
C2944      C2945   1.393       .  A
C2944      H2949   1.085   1_655  S
C2945      C3023   1.436       .  S
C2945      C2946   1.399       .  A
C2946      C2947   1.409       .  A
C2946      H2950   1.084       .  S
C2947      C3009   1.488       .  S
C2948      H2951   1.084       .  S
C2952      C2953   1.406       .  A
C2952      C2957   1.407       .  A
C2952      C3010   1.477       .  S
C2953      C2954   1.403       .  A
C2953      H2958   1.084       .  S
C2954      C3050   1.439       .  S
C2954      C2955   1.399       .  A
C2955      C2956   1.396       .  A
C2955      H2959   1.085       .  S
C2956      C3008   1.441       .  S
C2956      C2957   1.404       .  A
C2957      H2960   1.084       .  S
C2961      C3211   1.438       .  S
C2961      C2966   1.405       .  A
C2962      C2963   1.395       .  A
C2962      H2967   1.085       .  S
C2963      C3022   1.438       .  S
C2963      C2964   1.399       .  A
C2964      C2965   1.411       .  A
C2964      H2968   1.083       .  S
C2965      C3003   1.489       .  S
C2966      H2969   1.084       .  S
C2970      C3046   1.439       .  S
C2970      C2971   1.406       .  A
C2970      C2975   1.400       .  A
C2971      C2972   1.411       .  A
C2971      H2976   1.083       .  S
C2972      C2973   1.403       .  A
C2972      C3004   1.483       .  S
C2973      C2974   1.396       .  A
C2973      H2977   1.085       .  S
C2974      C3001   1.437       .  S
C2974      C2975   1.394       .  A
C2975      H2978   1.085       .  S
Fe2979     O2995   2.090       .  S
Fe2979     O2985   2.051       .  S
Fe2979     O2992   2.042       .  S
Fe2979     O2984   2.090       .  S
Fe2979     O2990   1.962       .  S
Fe2980     O2983   2.094       .  S
Fe2980     O2987   2.051       .  S
Fe2980     O2991   2.096       .  S
Fe2980     O2996   2.039       .  S
Fe2980     O2990   1.959       .  S
Fe2981     O2999   2.049       .  S
Fe2981     O2986   2.096       .  S
Fe2981     O2993   2.095       .  S
Fe2981     O2982   2.042       .  S
Fe2981     O2990   1.960       .  S
O2982      C2989   1.264       .  A
O2983      C2997   1.275       .  A
O2984      C2989   1.271       .  A
O2985      C2988   1.265       .  A
O2986      C2998   1.271       .  A
O2987      C3000   1.264       .  A
C2988      O2993   1.274       .  A
C2988      C3053   1.439       .  S
C2989      C3002   1.431       .  S
O2991      C2994   1.274       .  A
O2992      C2994   1.264       .  A
C2994      C3007   1.436       .  S
O2995      C3000   1.272       .  A
O2996      C2998   1.261       .  A
C2997      O2999   1.267       .  A
C2997      C3025   1.436       .  S
C2998      C3014   1.436       .  S
C3000      C3034   1.439       .  S
C3001      C3002   1.204       .  T
C3003      C3004   1.346       .  D
C3003      H3005   1.086       .  S
C3004      H3006   1.085       .  S
C3007      C3008   1.207       .  T
C3009      C3010   1.347       .  D
C3009      H3011   1.087       .  S
C3010      H3012   1.086       .  S
C3013      C3014   1.207       .  T
C3015      C3016   1.347       .  D
C3015      H3017   1.085       .  S
C3016      H3018   1.086       .  S
C3019      C3020   1.202       .  T
C3021      C3022   1.205       .  T
C3023      C3024   1.203       .  T
C3025      C3026   1.207       .  T
C3027      C3028   1.202       .  T
C3029      C3030   1.347       .  D
C3029      H3031   1.084       .  S
C3030      H3032   1.086       .  S
C3033      C3034   1.208       .  T
C3035      C3036   1.206       .  T
C3037      C3038   1.347       .  D
C3037      H3039   1.086       .  S
C3038      H3040   1.086       .  S
C3041      C3042   1.205       .  T
C3043      C3044   1.204       .  T
C3045      C3046   1.205       .  T
C3047      C3048   1.206       .  T
C3049      C3050   1.205       .  T
C3051      C3052   1.204       .  T
C3053      C3054   1.209       .  T
C3055      C3056   1.204       .  T
C3057      C3058   1.348       .  D
C3057      H3059   1.082       .  S
C3061      C3062   1.206       .  T
C3063      C3064   1.208       .  T
C3065      C3066   1.206       .  T
C3067      C3068   1.203       .  T
C3069      C3070   1.205       .  T
C3071      C3072   1.346       .  D
C3071      H3073   1.085       .  S
C3072      H3074   1.086       .  S
C3075      C3076   1.204       .  T
C3077      C3078   1.205       .  T
C3079      C3080   1.345       .  D
C3079      H3081   1.085       .  S
C3080      H3082   1.086   1_565  S
C3083      C3084   1.207       .  T
C3085      C3086   1.206       .  T
C3087      C3088   1.349       .  D
C3087      H3089   1.086       .  S
C3088      H3090   1.085       .  S
C3091      C3092   1.203       .  T
C3093      C3094   1.205       .  T
C3095      C3096   1.203       .  T
C3097      C3098   1.202       .  T
C3099      C3100   1.205       .  T
C3101      C3102   1.345       .  D
C3101      H3103   1.086       .  S
C3102      H3104   1.084       .  S
C3105      C3106   1.206       .  T
C3107      C3108   1.206       .  T
C3109      C3110   1.346       .  D
C3109      H3111   1.086       .  S
C3110      H3112   1.087       .  S
C3113      C3114   1.205       .  T
C3115      C3116   1.206       .  T
C3117      C3118   1.347       .  D
C3117      H3119   1.085       .  S
C3118      H3120   1.086       .  S
C3121      C3122   1.204       .  T
C3123      C3124   1.206       .  T
C3125      C3126   1.208       .  T
C3127      C3128   1.208       .  T
C3129      C3130   1.208       .  T
C3131      C3132   1.210       .  T
C3133      C3134   1.208       .  T
C3135      C3136   1.206       .  T
C3137      C3138   1.345       .  D
C3137      H3139   1.085       .  S
C3138      H3140   1.086       .  S
C3141      C3142   1.205       .  T
C3143      C3144   1.206       .  T
C3145      C3146   1.344       .  D
C3145      H3147   1.087       .  S
C3146      H3148   1.087       .  S
C3149      C3150   1.203       .  T
C3151      C3152   1.205       .  T
C3153      C3154   1.205       .  T
C3155      C3156   1.206       .  T
C3157      C3158   1.208       .  T
C3159      C3160   1.204       .  T
C3161      C3162   1.206       .  T
C3163      C3164   1.204       .  T
C3165      C3166   1.346       .  D
C3165      H3167   1.085       .  S
C3166      H3168   1.086       .  S
C3169      C3170   1.205       .  T
C3171      C3172   1.203       .  T
C3173      C3174   1.204       .  T
C3175      C3176   1.208       .  T
C3177      C3178   1.202       .  T
C3179      C3180   1.203       .  T
C3181      C3182   1.345       .  D
C3181      H3183   1.084       .  S
C3182      H3184   1.086       .  S
C3185      C3186   1.203       .  T
C3187      C3188   1.206       .  T
C3189      C3190   1.202       .  T
C3191      C3192   1.346       .  D
C3191      H3193   1.086       .  S
C3192      H3194   1.086       .  S
C3195      C3196   1.205       .  T
C3197      C3198   1.207       .  T
C3199      C3200   1.204       .  T
C3201      C3202   1.347       .  D
C3201      H3203   1.087       .  S
C3202      H3204   1.084       .  S
C3205      C3206   1.204       .  T
C3207      C3208   1.204       .  T
C3209      C3210   1.205       .  T
C3211      C3212   1.205       .  T
C3213      C3214   1.206       .  T
C3215      C3216   1.207       .  T
