geometry optimzed in LAMMPS
_audit_creation_date              2020-12-01 
_audit_creation_method            'lammps2cif' 
_symmetry_space_group_name_H-M    'P1' 
_symmetry_Int_Tables_number       1 
_symmetry_cell_setting            triclinic 
loop_ 
_symmetry_equiv_pos_as_xyz 
  x,y,z 
_cell_length_a                    26.55862245 
_cell_length_b                    26.54268486236551 
_cell_length_c                    34.22335786504254 
_cell_angle_alpha                 89.81240755533038 
_cell_angle_beta                  90.23638987356016 
_cell_angle_gamma                 83.57931678947433 
loop_ 
_atom_site_label 
_atom_site_type_symbol 
_atom_site_fract_x 
_atom_site_fract_y 
_atom_site_fract_z 
_atom_site_charge 
C1          C  0.16633852  0.98523381  0.08278618     0.42300
N2          N  0.08783605  0.48382837  0.06926140     0.01200
C3          C  0.48911125  0.38879314  0.39992561    -0.06700
H4          H  0.10033603  0.02938217  0.37389673     0.06700
C5          C  0.47371810  0.15104345  0.45442684    -0.07000
Co6        Co  0.07326493  0.42501632  0.49651300     0.74200
N7          N  0.08048498  0.49164091  0.42672498    -0.26200
Co8        Co  0.50181882  0.99809115  0.42769876     0.74100
C9          C  0.00030424  0.15505471  0.41760438     0.42400
N10         N  0.47788564  0.09623537  0.04636705     0.00800
N11         N  0.49726528  0.07670907  0.43080652     0.00900
N12         N  0.03317175  0.34254470  0.44710613    -0.47100
H13         H  0.19145672  0.44066631  0.02739066     0.06700
N14         N  0.10777204  0.46521238  0.45365895     0.01200
N15         N  0.42307526  0.00394149  0.43036696     0.00900
C16         C  0.34472389  0.50068588  0.41735233     0.42600
N17         N  0.50399584  0.06844735  0.07318642    -0.25700
C18         C  0.03658227  0.33689835  0.04516640    -0.06600
N19         N  0.11901408  0.99871395  0.09613127    -0.46800
N20         N  0.39207092  0.48815642  0.40377051    -0.47000
C21         C  0.51018168  0.33296133  0.08206676     0.42300
N22         N  0.03251479  0.39177446  0.45337552     0.01200
N23         N  0.43038013  0.99619613  0.07297411    -0.25700
N24         N  0.11203155  0.45977356  0.03998491    -0.26200
N25         N  0.40290660  0.02246756  0.04606582     0.00800
H26         H  0.41090985  0.45798116  0.12567415     0.06700
H27         H  0.31921304  0.04497564  0.47279626     0.06800
N28         N  0.00672115  0.41957453  0.42641771    -0.26200
N29         N  0.47318682  0.10112418  0.45998152    -0.25800
N30         N  0.01346023  0.41126438  0.06889130     0.01200
C31         C  0.16227801  0.98970413  0.41418138     0.42600
C32         C  0.02151290  0.09923974  0.09972341    -0.07100
N33         N  0.39873041  0.02766846  0.45971610    -0.25800
H34         H  0.45526793  0.18070424  0.47268076     0.06700
N35         N  0.15710229  0.46308249  0.44723233    -0.47100
H36         H  0.04282571  0.08743744  0.12577815     0.06700
C37         C  0.34868217  0.49732016  0.08550635     0.42400
C38         C  0.16201483  0.45932636  0.04571353    -0.06600
Co39       Co  0.00901752  0.48987124  0.07193861     0.73800
N40         N  0.47692222  0.14547620  0.05279767    -0.46800
C41         C  0.50608824  0.33796147  0.41420402     0.42700
N42         N  0.49769354  0.38038017  0.09556242    -0.46800
Co43       Co  0.43726084  0.06278716  0.00316186     0.73900
C44         C  0.34881747  0.02698576  0.45428985    -0.07100
C45         C  0.11171924  0.00815079  0.40010739    -0.06700
N46         N  0.03727283  0.38679448  0.03963723    -0.26200
N47         N  0.01306395  0.10764349  0.40418039    -0.46900
H48         H  0.46790964  0.40058738  0.37381262     0.06700
C49         C  0.39934154  0.47931653  0.09955321    -0.07100
Cl50       Cl  0.00537368  0.99399630  0.99982740    -0.50100
C51         C  0.00410128  0.15007976  0.08566887     0.42500
H52         H  0.05489410  0.30720231  0.02687844     0.06700
N53         N  0.35359230  0.02413150  0.05249061    -0.46800
C54         C  0.00652206  0.24367663  0.16485687     0.80100
N55         N  0.00781158  0.19892988  0.14555663    -0.78200
C56         C  0.00704745  0.19790344  0.10598704     0.82500
N57         N  0.00663507  0.24165837  0.08540688    -0.78200
C58         C  0.00639900  0.28646719  0.10437081     0.82600
N59         N  0.00557021  0.28750955  0.14403100    -0.79900
C60         C  0.00520475  0.24444754  0.33495769     0.80100
N61         N  0.00344535  0.28917494  0.35429107    -0.78200
C62         C  0.00347069  0.29017362  0.39384967     0.82500
N63         N  0.00362392  0.24641292  0.41438820    -0.78200
C64         C  0.00433977  0.20159240  0.39538079     0.82600
N65         N  0.00589626  0.20057923  0.35572928    -0.79900
C66         C  0.25606218  0.49204916  0.16497448     0.80100
N67         N  0.21244309  0.48999250  0.14440019    -0.78200
C68         C  0.21299869  0.48979213  0.10473659     0.82500
N69         N  0.25730789  0.49198437  0.08548469    -0.78200
C70         C  0.30091844  0.49418065  0.10587675     0.82600
N71         N  0.30017770  0.49402453  0.14545622    -0.79900
C72         C  0.25548212  0.49370969  0.33496184     0.80100
N73         N  0.21117519  0.49220929  0.35433192    -0.78200
C74         C  0.21019387  0.49223793  0.39390873     0.82500
N75         N  0.25374007  0.49411839  0.41444300    -0.78200
C76         C  0.29820674  0.49586851  0.39533557     0.82600
N77         N  0.29900277  0.49551910  0.35568598    -0.79900
C78         C  0.25575528  0.49225946  0.20847645    -0.05500
C79         C  0.29400573  0.46227181  0.22979588    -0.02600
C80         C  0.29419947  0.46303484  0.27100501     0.02400
C81         C  0.25604586  0.49366638  0.29145858    -0.05500
C82         C  0.21793699  0.02381185  0.27012651    -0.02600
C83         C  0.21777260  0.02307243  0.22892811     0.02400
C84         C  0.33249422  0.42907596  0.20953458     0.37800
C85         C  0.17962388  0.05725082  0.29036063     0.37000
C86         C  0.17929943  0.05567292  0.20773434     0.35400
C87         C  0.33297640  0.43078867  0.29218819     0.35400
N88         N  0.14855215  0.08162744  0.19092611    -0.39400
N89         N  0.36400638  0.40517948  0.30899220    -0.39400
N90         N  0.14898263  0.08387598  0.30638096    -0.38800
N91         N  0.36329355  0.40266065  0.19349655    -0.38800
C92         C  0.00594136  0.24387913  0.29143684    -0.05500
C93         C  0.47540335  0.21284449  0.27043672    -0.02600
C94         C  0.47534301  0.21312192  0.22923072     0.02400
C95         C  0.00592215  0.24435853  0.20839250    -0.05500
C96         C  0.03627920  0.27560637  0.22939196    -0.02600
C97         C  0.03635290  0.27531532  0.27061698     0.02400
C98         C  0.44229509  0.18185370  0.29103007     0.37000
C99         C  0.06882898  0.30718119  0.20880118     0.37000
C100        C  0.06910226  0.30653734  0.29143510     0.35400
C101        C  0.44208817  0.18241489  0.20844300     0.35400
N102        N  0.09506650  0.33160702  0.30795946    -0.39400
N103        N  0.41564286  0.15783748  0.19193192    -0.39400
N104        N  0.09468352  0.33256775  0.19252829    -0.38800
N105        N  0.41592487  0.15705121  0.30735016    -0.38800
C106        C  0.16633851  0.98523376  0.58278627     0.42300
N107        N  0.08783606  0.48382863  0.56926133     0.01200
C108        C  0.48911126  0.38879313  0.89992562    -0.06700
H109        H  0.10033561  0.02938284  0.87389596     0.06700
C110        C  0.47371805  0.15104349  0.95442678    -0.07000
Co111      Co  0.07326490  0.42501640  0.99651296     0.74200
N112        N  0.08048494  0.49164103  0.92672499    -0.26200
Co113      Co  0.50181881  0.99809113  0.92769872     0.74100
C114        C  0.00030424  0.15505472  0.91760437     0.42400
N115        N  0.47788578  0.09623523  0.54636714     0.00800
N116        N  0.49726523  0.07670909  0.93080644     0.00900
N117        N  0.03317171  0.34254478  0.94710609    -0.47100
H118        H  0.19145768  0.44066534  0.52739026     0.06700
N119        N  0.10777201  0.46521248  0.95365891     0.01200
N120        N  0.42307521  0.00394161  0.93036687     0.00900
C121        C  0.34472390  0.50068571  0.91735239     0.42600
N122        N  0.50399584  0.06844730  0.57318645    -0.25700
C123        C  0.03658223  0.33689818  0.54516634    -0.06600
N124        N  0.11901400  0.99871392  0.59613136    -0.46800
N125        N  0.39207106  0.48815636  0.90377058    -0.47000
C126        C  0.51018167  0.33296131  0.58206675     0.42300
N127        N  0.03251471  0.39177461  0.95337545     0.01200
N128        N  0.43038014  0.99619600  0.57297418    -0.25700
N129        N  0.11203159  0.45977360  0.53998489    -0.26200
N130        N  0.40290653  0.02246768  0.54606592     0.00800
H131        H  0.41090992  0.45798081  0.62567425     0.06700
H132        H  0.31921304  0.04497580  0.97279614     0.06800
N133        N  0.00672111  0.41957461  0.92641766    -0.26200
N134        N  0.47318678  0.10112420  0.95998144    -0.25800
N135        N  0.01346025  0.41126436  0.56889129     0.01200
C136        C  0.16227798  0.98970415  0.91418144     0.42600
C137        C  0.02151290  0.09923964  0.59972363    -0.07100
N138        N  0.39873036  0.02766865  0.95971597    -0.25800
H139        H  0.45526796  0.18070414  0.97268062     0.06700
N140        N  0.15710227  0.46308262  0.94723230    -0.47100
H141        H  0.04282527  0.08743749  0.62577799     0.06700
C142        C  0.34868215  0.49732003  0.58550628     0.42400
C143        C  0.16201465  0.45932636  0.54571374    -0.06600
Co144      Co  0.00901753  0.48987131  0.57193858     0.73800
N145        N  0.47692229  0.14547619  0.55279775    -0.46800
C146        C  0.50608836  0.33796149  0.91420398     0.42700
N147        N  0.49769359  0.38038019  0.59556244    -0.46800
Co148      Co  0.43726088  0.06278708  0.50316197     0.73900
C149        C  0.34881741  0.02698593  0.95428977    -0.07100
C150        C  0.11171926  0.00815069  0.90010767    -0.06700
N151        N  0.03727280  0.38679445  0.53963724    -0.26200
N152        N  0.01306398  0.10764347  0.90418044    -0.46900
H153        H  0.46790944  0.40058729  0.87381271     0.06700
C154        C  0.39934153  0.47931646  0.59955313    -0.07100
Cl155      Cl  0.00537370  0.99399619  0.49982745    -0.50100
C156        C  0.00410125  0.15007966  0.58566897     0.42500
H157        H  0.05489372  0.30720267  0.52687876     0.06700
N158        N  0.35359232  0.02413167  0.55249077    -0.46800
C159        C  0.00652214  0.24367665  0.66485689     0.80100
N160        N  0.00781160  0.19892983  0.64555664    -0.78200
C161        C  0.00704757  0.19790343  0.60598707     0.82500
N162        N  0.00663507  0.24165827  0.58540686    -0.78200
C163        C  0.00639902  0.28646720  0.60437082     0.82600
N164        N  0.00557043  0.28750946  0.64403099    -0.79900
C165        C  0.00520470  0.24444745  0.83495774     0.80100
N166        N  0.00344531  0.28917488  0.85429102    -0.78200
C167        C  0.00347064  0.29017361  0.89384969     0.82500
N168        N  0.00362386  0.24641295  0.91438817    -0.78200
C169        C  0.00433974  0.20159239  0.89538086     0.82600
N170        N  0.00589623  0.20057918  0.85572928    -0.79900
C171        C  0.25606220  0.49204903  0.66497448     0.80100
N172        N  0.21244309  0.48999244  0.64440017    -0.78200
C173        C  0.21299869  0.48979217  0.60473662     0.82500
N174        N  0.25730787  0.49198437  0.58548466    -0.78200
C175        C  0.30091845  0.49418067  0.60587673     0.82600
N176        N  0.30017769  0.49402447  0.64545619    -0.79900
C177        C  0.25548216  0.49370963  0.83496181     0.80100
N178        N  0.21117516  0.49220938  0.85433191    -0.78200
C179        C  0.21019387  0.49223801  0.89390868     0.82500
N180        N  0.25374001  0.49411848  0.91444300    -0.78200
C181        C  0.29820682  0.49586841  0.89533553     0.82600
N182        N  0.29900280  0.49551891  0.85568601    -0.79900
C183        C  0.25575526  0.49225943  0.70847644    -0.05500
C184        C  0.29400574  0.46227183  0.72979588    -0.02600
C185        C  0.29419952  0.46303488  0.77100499     0.02400
C186        C  0.25604589  0.49366641  0.79145859    -0.05500
C187        C  0.21793693  0.02381172  0.77012653    -0.02600
C188        C  0.21777263  0.02307236  0.72892814     0.02400
C189        C  0.33249426  0.42907596  0.70953457     0.37800
C190        C  0.17962384  0.05725068  0.79036064     0.37000
C191        C  0.17929953  0.05567286  0.70773440     0.35400
C192        C  0.33297638  0.43078860  0.79218816     0.35400
N193        N  0.14855214  0.08162734  0.69092627    -0.39400
N194        N  0.36400632  0.40517934  0.80899211    -0.39400
N195        N  0.14898255  0.08387588  0.80638092    -0.38800
N196        N  0.36329373  0.40266091  0.69349652    -0.38800
C197        C  0.00594135  0.24387906  0.79143686    -0.05500
C198        C  0.47540330  0.21284456  0.77043670    -0.02600
C199        C  0.47534305  0.21312186  0.72923069     0.02400
C200        C  0.00592218  0.24435851  0.70839252    -0.05500
C201        C  0.03627928  0.27560629  0.72939204    -0.02600
C202        C  0.03635294  0.27531520  0.77061704     0.02400
C203        C  0.44229498  0.18185390  0.79103002     0.37000
C204        C  0.06882925  0.30718096  0.70880121     0.37000
C205        C  0.06910252  0.30653709  0.79143523     0.35400
C206        C  0.44208820  0.18241480  0.70844295     0.35400
N207        N  0.09506693  0.33160656  0.80795945    -0.39400
N208        N  0.41564287  0.15783737  0.69193187    -0.39400
N209        N  0.09468388  0.33256722  0.69252825    -0.38800
N210        N  0.41592477  0.15705143  0.80735011    -0.38800
C211        C  0.16633252  0.48523572  0.08278605     0.42300
N212        N  0.08784190  0.98382738  0.06926142     0.01200
C213        C  0.48911526  0.88879310  0.39992608    -0.06700
H214        H  0.10032970  0.52938356  0.37389573     0.06700
C215        C  0.47371404  0.65104408  0.45442690    -0.07000
Co216      Co  0.07327021  0.92501508  0.49651319     0.74200
N217        N  0.08049089  0.99163986  0.42672529    -0.26200
Co218      Co  0.50181294  0.49809166  0.42769853     0.74100
C219        C  0.00030082  0.65505498  0.41760469     0.42400
N220        N  0.47788000  0.59623606  0.04636706     0.00800
N221        N  0.49725921  0.57670959  0.43080619     0.00900
N222        N  0.03317516  0.84254401  0.44710644    -0.47100
H223        H  0.19146274  0.94066334  0.02739081     0.06700
N224        N  0.10777775  0.96521092  0.45365904     0.01200
N225        N  0.42306939  0.50394186  0.43036691     0.00900
C226        C  0.34472976  0.00068492  0.41735255     0.42600
N227        N  0.50399009  0.56844792  0.07318633    -0.25700
C228        C  0.03658486  0.83689746  0.04516608    -0.06600
N229        N  0.11900807  0.49871511  0.09613130    -0.46800
N230        N  0.39207687  0.98815585  0.40377064    -0.47000
C231        C  0.51018340  0.83296112  0.08206627     0.42300
N232        N  0.03251964  0.89177373  0.45337556     0.01200
N233        N  0.43037428  0.49619653  0.07297379    -0.25700
N234        N  0.11203724  0.95977195  0.03998510    -0.26200
N235        N  0.40290077  0.52246834  0.04606562     0.00800
H236        H  0.41091573  0.95798079  0.12567410     0.06700
H237        H  0.31920749  0.54497693  0.47279562     0.06800
N238        N  0.00672640  0.91957413  0.42641779    -0.26200
N239        N  0.47318119  0.60112498  0.45998126    -0.25800
N240        N  0.01346547  0.91126386  0.06889162     0.01200
C241        C  0.16227211  0.48970578  0.41418122     0.42600
C242        C  0.02150790  0.59924008  0.09972308    -0.07100
N243        N  0.39872460  0.52766923  0.45971587    -0.25800
H244        H  0.45526460  0.68070563  0.47268137     0.06700
N245        N  0.15710809  0.96308062  0.44723235    -0.47100
H246        H  0.04282127  0.58743764  0.12577765     0.06700
C247        C  0.34868807  0.99731911  0.08550649     0.42400
C248        C  0.16202051  0.95932424  0.04571384    -0.06600
Co249      Co  0.00902326  0.98987070  0.07193883     0.73800
N250        N  0.47691753  0.64547697  0.05279742    -0.46800
C251        C  0.50609106  0.83796120  0.41420458     0.42700
N252        N  0.49769696  0.88038003  0.09556228    -0.46800
Co253      Co  0.43725508  0.56278797  0.00316174     0.73900
C254        C  0.34881155  0.52698691  0.45428958    -0.07100
C255        C  0.11171330  0.50815181  0.40010725    -0.06700
N256        N  0.03727740  0.88679363  0.03963748    -0.26200
N257        N  0.01305932  0.60764363  0.40418054    -0.46900
H258        H  0.46791302  0.90058771  0.37381332     0.06700
C259        C  0.39934749  0.97931585  0.09955358    -0.07100
Cl260      Cl  0.00536798  0.49399712  0.99982715    -0.50100
C261        C  0.00409711  0.65008014  0.08566838     0.42500
H262        H  0.05489494  0.80720183  0.02687830     0.06700
N263        N  0.35358648  0.52413265  0.05249054    -0.46800
C264        C  0.00652194  0.74367662  0.16485630     0.80100
N265        N  0.00781039  0.69893000  0.14555582    -0.78200
C266        C  0.00704518  0.69790372  0.10598628     0.82500
N267        N  0.00663358  0.74165850  0.08540607    -0.78200
C268        C  0.00639909  0.78646715  0.10437011     0.82600
N269        N  0.00557060  0.78750933  0.14403033    -0.79900
C270        C  0.00520540  0.74444747  0.33495816     0.80100
N271        N  0.00344678  0.78917470  0.35429169    -0.78200
C272        C  0.00347198  0.79017348  0.39385028     0.82500
N273        N  0.00362355  0.74641291  0.41438883    -0.78200
C274        C  0.00433845  0.70159252  0.39538136     0.82600
N275        N  0.00589578  0.70057932  0.35572987    -0.79900
C276        C  0.25606826  0.99204718  0.16497467     0.80100
N277        N  0.21244918  0.98999033  0.14440040    -0.78200
C278        C  0.21300470  0.98979011  0.10473679     0.82500
N279        N  0.25731387  0.99198267  0.08548486    -0.78200
C280        C  0.30092435  0.99417933  0.10587688     0.82600
N281        N  0.30018368  0.99402307  0.14545638    -0.79900
C282        C  0.25548820  0.99370785  0.33496207     0.80100
N283        N  0.21118120  0.99220738  0.35433207    -0.78200
C284        C  0.21019986  0.99223614  0.39390893     0.82500
N285        N  0.25374592  0.99411686  0.41444322    -0.78200
C286        C  0.29821270  0.99586710  0.39533583     0.82600
N287        N  0.29900871  0.99551754  0.35568624    -0.79900
C288        C  0.25576144  0.99225748  0.20847666    -0.05500
C289        C  0.29401200  0.96226992  0.22979609    -0.02600
C290        C  0.29420572  0.96303296  0.27100523     0.02400
C291        C  0.25605205  0.99366452  0.29145879    -0.05500
C292        C  0.21793062  0.52381348  0.27012631    -0.02600
C293        C  0.21776631  0.52307413  0.22892793     0.02400
C294        C  0.33250066  0.92907418  0.20953471     0.37800
C295        C  0.17961729  0.55725225  0.29036043     0.37000
C296        C  0.17929298  0.55567444  0.20773418     0.35400
C297        C  0.33298272  0.93078682  0.29218849     0.35400
N298        N  0.14854549  0.58162867  0.19092605    -0.39400
N299        N  0.36401255  0.90517761  0.30899249    -0.39400
N300        N  0.14897590  0.58387720  0.30638069    -0.38800
N301        N  0.36329999  0.90265913  0.19349655    -0.38800
C302        C  0.00594204  0.74387908  0.29143703    -0.05500
C303        C  0.47540894  0.71283952  0.27043677    -0.02600
C304        C  0.47534825  0.71311686  0.22923075     0.02400
C305        C  0.00592241  0.74435833  0.20839221    -0.05500
C306        C  0.03627445  0.77561117  0.22939177    -0.02600
C307        C  0.03634850  0.77532005  0.27061682     0.02400
C308        C  0.44230609  0.68184275  0.29103002     0.37000
C309        C  0.06881890  0.80719174  0.20880106     0.37000
C310        C  0.06909338  0.80654737  0.29143454     0.35400
C311        C  0.44209798  0.68240435  0.20844342     0.35400
N312        N  0.09505394  0.83162116  0.30795832    -0.39400
N313        N  0.41565654  0.65782244  0.19193284    -0.39400
N314        N  0.09466898  0.83258296  0.19252852    -0.38800
N315        N  0.41594066  0.65703527  0.30734991    -0.38800
C316        C  0.16633256  0.48523566  0.58278605     0.42300
N317        N  0.08784186  0.98382744  0.56926160     0.01200
C318        C  0.48911530  0.88879301  0.89992601    -0.06700
H319        H  0.10032961  0.52938331  0.87389580     0.06700
C320        C  0.47371413  0.65104400  0.95442681    -0.07000
Co321      Co  0.07327017  0.92501504  0.99651315     0.74200
N322        N  0.08049086  0.99163991  0.92672533    -0.26200
Co323      Co  0.50181295  0.49809176  0.92769850     0.74100
C324        C  0.00030082  0.65505511  0.91760472     0.42400
N325        N  0.47787999  0.59623605  0.54636703     0.00800
N326        N  0.49725917  0.57670966  0.93080609     0.00900
N327        N  0.03317511  0.84254399  0.94710640    -0.47100
H328        H  0.19146359  0.94066292  0.52739035     0.06700
N329        N  0.10777772  0.96521083  0.95365909     0.01200
N330        N  0.42306940  0.50394184  0.93036687     0.00900
C331        C  0.34472971  0.00068499  0.91735252     0.42600
N332        N  0.50399008  0.56844787  0.57318631    -0.25700
C333        C  0.03658472  0.83689772  0.54516616    -0.06600
N334        N  0.11900805  0.49871532  0.59613124    -0.46800
N335        N  0.39207681  0.98815599  0.90377055    -0.47000
C336        C  0.51018347  0.83296114  0.58206621     0.42300
N337        N  0.03251957  0.89177378  0.95337550     0.01200
N338        N  0.43037433  0.49619653  0.57297387    -0.25700
N339        N  0.11203728  0.95977192  0.53998515    -0.26200
N340        N  0.40290070  0.52246838  0.54606560     0.00800
H341        H  0.41091580  0.95798027  0.62567429     0.06700
H342        H  0.31920715  0.54497699  0.97279580     0.06800
N343        N  0.00672636  0.91957411  0.92641774    -0.26200
N344        N  0.47318116  0.60112502  0.95998123    -0.25800
N345        N  0.01346539  0.91126390  0.56889159     0.01200
C346        C  0.16227207  0.48970589  0.91418120     0.42600
C347        C  0.02150813  0.59924003  0.59972305    -0.07100
N348        N  0.39872456  0.52766931  0.95971592    -0.25800
H349        H  0.45526439  0.68070608  0.97268160     0.06700
N350        N  0.15710805  0.96308061  0.94723242    -0.47100
H351        H  0.04282131  0.58743762  0.62577722     0.06700
C352        C  0.34868804  0.99731904  0.58550651     0.42400
C353        C  0.16202028  0.95932437  0.54571406    -0.06600
Co354      Co  0.00902324  0.98987065  0.57193884     0.73800
N355        N  0.47691757  0.64547692  0.55279741    -0.46800
C356        C  0.50609103  0.83796115  0.91420456     0.42700
N357        N  0.49769718  0.88038007  0.59556227    -0.46800
Co358      Co  0.43725509  0.56278792  0.50316174     0.73900
C359        C  0.34881163  0.52698679  0.95428955    -0.07100
C360        C  0.11171322  0.50815187  0.90010717    -0.06700
N361        N  0.03727740  0.88679358  0.53963742    -0.26200
N362        N  0.01305946  0.60764383  0.90418054    -0.46900
H363        H  0.46791302  0.90058758  0.87381337     0.06700
C364        C  0.39934746  0.97931572  0.59955350    -0.07100
Cl365      Cl  0.00536781  0.49399690  0.49982718    -0.50100
C366        C  0.00409725  0.65008016  0.58566835     0.42500
H367        H  0.05489564  0.80720083  0.52687764     0.06700
N368        N  0.35358656  0.52413254  0.55249049    -0.46800
C369        C  0.00652182  0.74367669  0.66485633     0.80100
N370        N  0.00781033  0.69893013  0.64555587    -0.78200
C371        C  0.00704517  0.69790381  0.60598628     0.82500
N372        N  0.00663353  0.74165860  0.58540612    -0.78200
C373        C  0.00639904  0.78646727  0.60437016     0.82600
N374        N  0.00557052  0.78750948  0.64403037    -0.79900
C375        C  0.00520528  0.74444748  0.83495823     0.80100
N376        N  0.00344641  0.78917474  0.85429175    -0.78200
C377        C  0.00347167  0.79017350  0.89385036     0.82500
N378        N  0.00362344  0.74641298  0.91438892    -0.78200
C379        C  0.00433841  0.70159260  0.89538145     0.82600
N380        N  0.00589577  0.70057937  0.85572994    -0.79900
C381        C  0.25606829  0.99204718  0.66497468     0.80100
N382        N  0.21244917  0.98999043  0.64440040    -0.78200
C383        C  0.21300471  0.98979017  0.60473681     0.82500
N384        N  0.25731382  0.99198275  0.58548484    -0.78200
C385        C  0.30092439  0.99417926  0.60587692     0.82600
N386        N  0.30018369  0.99402290  0.64545635    -0.79900
C387        C  0.25548816  0.99370769  0.83496205     0.80100
N388        N  0.21118115  0.99220722  0.85433211    -0.78200
C389        C  0.21019984  0.99223610  0.89390893     0.82500
N390        N  0.25374589  0.99411705  0.91444321    -0.78200
C391        C  0.29821265  0.99586724  0.89533578     0.82600
N392        N  0.29900867  0.99551746  0.85568622    -0.79900
C393        C  0.25576148  0.99225752  0.70847666    -0.05500
C394        C  0.29401205  0.96227002  0.72979610    -0.02600
C395        C  0.29420573  0.96303302  0.77100523     0.02400
C396        C  0.25605200  0.99366441  0.79145881    -0.05500
C397        C  0.21793076  0.52381360  0.77012631    -0.02600
C398        C  0.21776632  0.52307423  0.72892791     0.02400
C399        C  0.33250060  0.92907415  0.70953479     0.37800
C400        C  0.17961729  0.55725224  0.79036048     0.37000
C401        C  0.17929295  0.55567445  0.70773415     0.35400
C402        C  0.33298268  0.93078676  0.79218845     0.35400
N403        N  0.14854545  0.58162882  0.69092600    -0.39400
N404        N  0.36401248  0.90517749  0.80899240    -0.39400
N405        N  0.14897583  0.58387706  0.80638067    -0.38800
N406        N  0.36329996  0.90265897  0.69349678    -0.38800
C407        C  0.00594202  0.74387901  0.79143708    -0.05500
C408        C  0.47540881  0.71283969  0.77043683    -0.02600
C409        C  0.47534811  0.71311715  0.72923083     0.02400
C410        C  0.00592233  0.74435839  0.70839225    -0.05500
C411        C  0.03627434  0.77561120  0.72939181    -0.02600
C412        C  0.03634840  0.77532017  0.77061688     0.02400
C413        C  0.44230562  0.68184330  0.79103002     0.37000
C414        C  0.06881859  0.80719196  0.70880105     0.37000
C415        C  0.06909300  0.80654769  0.79143464     0.35400
C416        C  0.44209756  0.68240497  0.70844351     0.35400
N417        N  0.09505338  0.83162170  0.80795852    -0.39400
N418        N  0.41565596  0.65782340  0.69193279    -0.39400
N419        N  0.09466852  0.83258323  0.69252844    -0.38800
N420        N  0.41593985  0.65703597  0.80734981    -0.38800
C421        C  0.66633848  0.98523381  0.08278619     0.42300
N422        N  0.58783601  0.48382837  0.06926141     0.01200
C423        C  0.98911129  0.38879309  0.39992584    -0.06700
H424        H  0.60033602  0.02938216  0.37389673     0.06700
C425        C  0.97371814  0.15104346  0.45442687    -0.07000
Co426      Co  0.57326489  0.42501633  0.49651299     0.74200
N427        N  0.58048495  0.49164089  0.42672498    -0.26200
Co428      Co  0.00181883  0.99809115  0.42769876     0.74100
C429        C  0.50030428  0.15505471  0.41760440     0.42400
N430        N  0.97788561  0.09623536  0.04636707     0.00800
N431        N  0.99726527  0.07670907  0.43080653     0.00900
N432        N  0.53317166  0.34254471  0.44710611    -0.47100
H433        H  0.69145712  0.44066602  0.02739034     0.06700
N434        N  0.60777200  0.46521238  0.45365894     0.01200
N435        N  0.92307525  0.00394149  0.43036697     0.00900
C436        C  0.84472391  0.50068587  0.41735231     0.42600
N437        N  0.00399588  0.06844734  0.07318642    -0.25700
C438        C  0.53658222  0.33689835  0.04516640    -0.06600
N439        N  0.61901402  0.99871401  0.09613125    -0.46800
N440        N  0.89207102  0.48815644  0.40377051    -0.47000
C441        C  0.01018171  0.33296133  0.08206676     0.42300
N442        N  0.53251469  0.39177450  0.45337549     0.01200
N443        N  0.93038011  0.99619611  0.07297412    -0.25700
N444        N  0.61203153  0.45977356  0.03998491    -0.26200
N445        N  0.90290656  0.02246757  0.04606586     0.00800
H446        H  0.91090987  0.45798116  0.12567412     0.06700
H447        H  0.81921302  0.04497562  0.47279625     0.06800
N448        N  0.50672114  0.41957454  0.42641770    -0.26200
N449        N  0.97318692  0.10112416  0.45998157    -0.25800
N450        N  0.51346020  0.41126439  0.06889131     0.01200
C451        C  0.66227803  0.98970413  0.41418138     0.42600
C452        C  0.52151285  0.09923974  0.09972342    -0.07100
N453        N  0.89873039  0.02766847  0.45971610    -0.25800
H454        H  0.95526791  0.18070419  0.47268072     0.06700
N455        N  0.65710226  0.46308249  0.44723233    -0.47100
H456        H  0.54282563  0.08743744  0.12577816     0.06700
C457        C  0.84868217  0.49732016  0.08550633     0.42400
C458        C  0.66201469  0.45932642  0.04571358    -0.06600
Co459      Co  0.50901750  0.48987126  0.07193861     0.73800
N460        N  0.97692219  0.14547619  0.05279769    -0.46800
C461        C  0.00608825  0.33796146  0.41420404     0.42700
N462        N  0.99769354  0.38038017  0.09556241    -0.46800
Co463      Co  0.93726082  0.06278716  0.00316189     0.73900
C464        C  0.84881744  0.02698576  0.45428985    -0.07100
C465        C  0.61171922  0.00815079  0.40010739    -0.06700
N466        N  0.53727278  0.38679448  0.03963722    -0.26200
N467        N  0.51306413  0.10764348  0.40418046    -0.46900
H468        H  0.96790893  0.40058769  0.37381211     0.06700
C469        C  0.89934156  0.47931653  0.09955321    -0.07100
Cl470      Cl  0.50537364  0.99399629  0.99982739    -0.50100
C471        C  0.50410126  0.15007976  0.08566888     0.42500
H472        H  0.55489405  0.30720230  0.02687843     0.06700
N473        N  0.85359225  0.02413158  0.05249072    -0.46800
C474        C  0.50652202  0.24367664  0.16485687     0.80100
N475        N  0.50781154  0.19892989  0.14555663    -0.78200
C476        C  0.50704740  0.19790344  0.10598704     0.82500
N477        N  0.50663502  0.24165837  0.08540688    -0.78200
C478        C  0.50639896  0.28646719  0.10437080     0.82600
N479        N  0.50557017  0.28750956  0.14403100    -0.79900
C480        C  0.50520471  0.24444754  0.33495769     0.80100
N481        N  0.50344531  0.28917494  0.35429107    -0.78200
C482        C  0.50347064  0.29017362  0.39384965     0.82500
N483        N  0.50362388  0.24641292  0.41438820    -0.78200
C484        C  0.50433974  0.20159240  0.39538079     0.82600
N485        N  0.50589622  0.20057924  0.35572928    -0.79900
C486        C  0.75606218  0.49204916  0.16497445     0.80100
N487        N  0.71244308  0.48999250  0.14440013    -0.78200
C488        C  0.71299871  0.48979213  0.10473655     0.82500
N489        N  0.75730787  0.49198437  0.08548462    -0.78200
C490        C  0.80091847  0.49418064  0.10587673     0.82600
N491        N  0.80017767  0.49402453  0.14545617    -0.79900
C492        C  0.75548214  0.49370969  0.33496184     0.80100
N493        N  0.71117517  0.49220929  0.35433193    -0.78200
C494        C  0.71019390  0.49223793  0.39390874     0.82500
N495        N  0.75374007  0.49411838  0.41444300    -0.78200
C496        C  0.79820681  0.49586849  0.39533555     0.82600
N497        N  0.79900275  0.49551910  0.35568597    -0.79900
C498        C  0.75575524  0.49225945  0.20847643    -0.05500
C499        C  0.79400568  0.46227177  0.22979587    -0.02600
C500        C  0.79419944  0.46303482  0.27100501     0.02400
C501        C  0.75604585  0.49366640  0.29145858    -0.05500
C502        C  0.71793696  0.02381184  0.27012652    -0.02600
C503        C  0.71777261  0.02307246  0.22892810     0.02400
C504        C  0.83249424  0.42907603  0.20953458     0.37800
C505        C  0.67962384  0.05725082  0.29036063     0.37000
C506        C  0.67929957  0.05567296  0.20773435     0.35400
C507        C  0.83297637  0.43078866  0.29218819     0.35400
N508        N  0.64855216  0.08162745  0.19092611    -0.39400
N509        N  0.86400634  0.40517947  0.30899220    -0.39400
N510        N  0.64898258  0.08387598  0.30638096    -0.38800
N511        N  0.86329380  0.40266099  0.19349655    -0.38800
C512        C  0.50594136  0.24387915  0.29143685    -0.05500
C513        C  0.97540334  0.21284454  0.27043670    -0.02600
C514        C  0.97534294  0.21312191  0.22923069     0.02400
C515        C  0.50592216  0.24435856  0.20839251    -0.05500
C516        C  0.53627924  0.27560636  0.22939198    -0.02600
C517        C  0.53635292  0.27531531  0.27061698     0.02400
C518        C  0.94229512  0.18185370  0.29103007     0.37000
C519        C  0.56882912  0.30718116  0.20880116     0.37000
C520        C  0.56910240  0.30653731  0.29143512     0.35400
C521        C  0.94208816  0.18241483  0.20844300     0.35400
N522        N  0.59506651  0.33160701  0.30795946    -0.39400
N523        N  0.91564292  0.15783720  0.19193196    -0.39400
N524        N  0.59468353  0.33256774  0.19252829    -0.38800
N525        N  0.91592509  0.15705115  0.30735020    -0.38800
C526        C  0.66633851  0.98523377  0.58278626     0.42300
N527        N  0.58783606  0.48382863  0.56926136     0.01200
C528        C  0.98911117  0.38879314  0.89992571    -0.06700
H529        H  0.60033550  0.02938290  0.87389585     0.06700
C530        C  0.97371805  0.15104350  0.95442685    -0.07000
Co531      Co  0.57326488  0.42501641  0.99651297     0.74200
N532        N  0.58048498  0.49164105  0.92672500    -0.26200
Co533      Co  0.00181878  0.99809116  0.92769873     0.74100
C534        C  0.50030430  0.15505470  0.91760435     0.42400
N535        N  0.97788575  0.09623523  0.54636716     0.00800
N536        N  0.99726525  0.07670910  0.93080648     0.00900
N537        N  0.53317174  0.34254473  0.94710612    -0.47100
H538        H  0.69145775  0.44066528  0.52739018     0.06700
N539        N  0.60777198  0.46521250  0.95365891     0.01200
N540        N  0.92307519  0.00394164  0.93036687     0.00900
C541        C  0.84472387  0.50068571  0.91735241     0.42600
N542        N  0.00399587  0.06844730  0.57318645    -0.25700
C543        C  0.53658219  0.33689820  0.54516633    -0.06600
N544        N  0.61901398  0.99871392  0.59613136    -0.46800
N545        N  0.89207103  0.48815642  0.90377056    -0.47000
C546        C  0.01018166  0.33296131  0.58206675     0.42300
N547        N  0.53251473  0.39177462  0.95337545     0.01200
N548        N  0.93038011  0.99619603  0.57297418    -0.25700
N549        N  0.61203159  0.45977358  0.53998489    -0.26200
N550        N  0.90290650  0.02246768  0.54606591     0.00800
H551        H  0.91090984  0.45798104  0.62567410     0.06700
H552        H  0.81921348  0.04497548  0.97279581     0.06800
N553        N  0.50672126  0.41957457  0.92641766    -0.26200
N554        N  0.97318684  0.10112419  0.95998154    -0.25800
N555        N  0.51346020  0.41126437  0.56889128     0.01200
C556        C  0.66227798  0.98970409  0.91418136     0.42600
C557        C  0.52151286  0.09923964  0.59972365    -0.07100
N558        N  0.89873036  0.02766865  0.95971597    -0.25800
H559        H  0.95526788  0.18070410  0.97268061     0.06700
N560        N  0.65710232  0.46308260  0.94723229    -0.47100
H561        H  0.54282521  0.08743749  0.62577800     0.06700
C562        C  0.84868222  0.49732006  0.58550632     0.42400
C563        C  0.66201462  0.45932636  0.54571374    -0.06600
Co564      Co  0.50901750  0.48987133  0.57193858     0.73800
N565        N  0.97692227  0.14547619  0.55279776    -0.46800
C566        C  0.00608821  0.33796151  0.91420400     0.42700
N567        N  0.99769356  0.38038020  0.59556243    -0.46800
Co568      Co  0.93726087  0.06278708  0.50316198     0.73900
C569        C  0.84881727  0.02698600  0.95428982    -0.07100
C570        C  0.61171923  0.00815066  0.90010765    -0.06700
N571        N  0.53727274  0.38679447  0.53963722    -0.26200
N572        N  0.51306410  0.10764345  0.90418041    -0.46900
H573        H  0.96790914  0.40058743  0.87381241     0.06700
C574        C  0.89934160  0.47931644  0.59955320    -0.07100
Cl575      Cl  0.50537367  0.99399618  0.49982744    -0.50100
C576        C  0.50410122  0.15007966  0.58566898     0.42500
H577        H  0.55489369  0.30720268  0.52687875     0.06700
N578        N  0.85359228  0.02413167  0.55249078    -0.46800
C579        C  0.50652222  0.24367661  0.66485689     0.80100
N580        N  0.50781181  0.19892981  0.64555663    -0.78200
C581        C  0.50704760  0.19790343  0.60598706     0.82500
N582        N  0.50663508  0.24165829  0.58540687    -0.78200
C583        C  0.50639915  0.28646719  0.60437083     0.82600
N584        N  0.50557045  0.28750946  0.64403100    -0.79900
C585        C  0.50520471  0.24444740  0.83495774     0.80100
N586        N  0.50344530  0.28917486  0.85429103    -0.78200
C587        C  0.50347064  0.29017355  0.89384969     0.82500
N588        N  0.50362391  0.24641293  0.91438818    -0.78200
C589        C  0.50433988  0.20159232  0.89538084     0.82600
N590        N  0.50589628  0.20057917  0.85572928    -0.79900
C591        C  0.75606215  0.49204903  0.66497450     0.80100
N592        N  0.71244308  0.48999244  0.64440019    -0.78200
C593        C  0.71299868  0.48979216  0.60473662     0.82500
N594        N  0.75730793  0.49198438  0.58548470    -0.78200
C595        C  0.80091845  0.49418069  0.60587677     0.82600
N596        N  0.80017768  0.49402447  0.64545626    -0.79900
C597        C  0.75548216  0.49370964  0.83496181     0.80100
N598        N  0.71117514  0.49220938  0.85433191    -0.78200
C599        C  0.71019390  0.49223800  0.89390869     0.82500
N600        N  0.75373999  0.49411848  0.91444300    -0.78200
C601        C  0.79820683  0.49586841  0.89533553     0.82600
N602        N  0.79900278  0.49551891  0.85568601    -0.79900
C603        C  0.75575520  0.49225941  0.70847647    -0.05500
C604        C  0.79400566  0.46227187  0.72979591    -0.02600
C605        C  0.79419947  0.46303488  0.77100501     0.02400
C606        C  0.75604585  0.49366641  0.79145860    -0.05500
C607        C  0.71793705  0.02381172  0.77012652    -0.02600
C608        C  0.71777269  0.02307236  0.72892815     0.02400
C609        C  0.83249415  0.42907595  0.70953457     0.37800
C610        C  0.67962392  0.05725070  0.79036065     0.37000
C611        C  0.67929960  0.05567284  0.70773441     0.35400
C612        C  0.83297634  0.43078860  0.79218817     0.35400
N613        N  0.64855236  0.08162739  0.69092624    -0.39400
N614        N  0.86400628  0.40517934  0.80899211    -0.39400
N615        N  0.64898279  0.08387590  0.80638093    -0.38800
N616        N  0.86329342  0.40266084  0.69349648    -0.38800
C617        C  0.50594145  0.24387903  0.79143685    -0.05500
C618        C  0.97540318  0.21284466  0.77043668    -0.02600
C619        C  0.97534283  0.21312210  0.72923071     0.02400
C620        C  0.50592231  0.24435843  0.70839252    -0.05500
C621        C  0.53627933  0.27560631  0.72939202    -0.02600
C622        C  0.53635300  0.27531522  0.77061706     0.02400
C623        C  0.94229473  0.18185401  0.79103003     0.37000
C624        C  0.56882921  0.30718106  0.70880121     0.37000
C625        C  0.56910249  0.30653719  0.79143523     0.35400
C626        C  0.94208785  0.18241515  0.70844293     0.35400
N627        N  0.59506680  0.33160686  0.80795942    -0.39400
N628        N  0.91564268  0.15783772  0.69193185    -0.39400
N629        N  0.59468375  0.33256752  0.69252827    -0.38800
N630        N  0.91592457  0.15705172  0.80735014    -0.38800
C631        C  0.66633250  0.48523571  0.08278602     0.42300
N632        N  0.58784185  0.98382755  0.06926142     0.01200
C633        C  0.98911524  0.88879309  0.39992606    -0.06700
H634        H  0.60032970  0.52938346  0.37389588     0.06700
C635        C  0.97371405  0.65104404  0.45442688    -0.07000
Co636      Co  0.57327023  0.92501509  0.49651319     0.74200
N637        N  0.58049086  0.99163987  0.42672528    -0.26200
Co638      Co  0.00181295  0.49809163  0.42769856     0.74100
C639        C  0.50030084  0.65505503  0.41760471     0.42400
N640        N  0.97787997  0.59623606  0.04636703     0.00800
N641        N  0.99725916  0.57670955  0.43080618     0.00900
N642        N  0.53317517  0.84254400  0.44710643    -0.47100
H643        H  0.69146270  0.94066324  0.02739082     0.06700
N644        N  0.60777773  0.96521093  0.45365904     0.01200
N645        N  0.92306940  0.50394184  0.43036690     0.00900
C646        C  0.84472978  0.00068492  0.41735254     0.42600
N647        N  0.00399010  0.56844784  0.07318637    -0.25700
C648        C  0.53658482  0.83689746  0.04516609    -0.06600
N649        N  0.61900806  0.49871511  0.09613131    -0.46800
N650        N  0.89207687  0.98815585  0.40377064    -0.47000
C651        C  0.01018350  0.83296111  0.08206628     0.42300
N652        N  0.53251974  0.89177370  0.45337554     0.01200
N653        N  0.93037432  0.49619653  0.07297381    -0.25700
N654        N  0.61203719  0.95977202  0.03998508    -0.26200
N655        N  0.90290076  0.52246834  0.04606561     0.00800
H656        H  0.91091573  0.95798077  0.12567409     0.06700
H657        H  0.81920739  0.54497693  0.47279562     0.06800
N658        N  0.50672643  0.91957414  0.42641777    -0.26200
N659        N  0.97318114  0.60112495  0.45998130    -0.25800
N660        N  0.51346540  0.91126387  0.06889162     0.01200
C661        C  0.66227209  0.48970578  0.41418123     0.42600
C662        C  0.52150810  0.59924009  0.09972313    -0.07100
N663        N  0.89872459  0.52766925  0.45971589    -0.25800
H664        H  0.95526459  0.68070567  0.47268136     0.06700
N665        N  0.65710805  0.96308063  0.44723235    -0.47100
H666        H  0.54282111  0.58743786  0.12577712     0.06700
C667        C  0.84868804  0.99731910  0.08550654     0.42400
C668        C  0.66202043  0.95932425  0.04571386    -0.06600
Co669      Co  0.50902323  0.98987073  0.07193883     0.73800
N670        N  0.97691750  0.64547687  0.05279740    -0.46800
C671        C  0.00609110  0.83796120  0.41420457     0.42700
N672        N  0.99769716  0.88038003  0.09556232    -0.46800
Co673      Co  0.93725506  0.56278797  0.00316175     0.73900
C674        C  0.84881157  0.52698688  0.45428955    -0.07100
C675        C  0.61171326  0.50815184  0.40010722    -0.06700
N676        N  0.53727736  0.88679363  0.03963750    -0.26200
N677        N  0.51305950  0.60764374  0.40418056    -0.46900
H678        H  0.96791307  0.90058766  0.37381334     0.06700
C679        C  0.89934749  0.97931581  0.09955360    -0.07100
Cl680      Cl  0.50536796  0.49399711  0.99982715    -0.50100
C681        C  0.50409713  0.65008017  0.08566836     0.42500
H682        H  0.55489490  0.80720184  0.02687833     0.06700
N683        N  0.85358653  0.52413263  0.05249053    -0.46800
C684        C  0.50652188  0.74367661  0.16485630     0.80100
N685        N  0.50781035  0.69893000  0.14555583    -0.78200
C686        C  0.50704516  0.69790374  0.10598629     0.82500
N687        N  0.50663354  0.74165851  0.08540608    -0.78200
C688        C  0.50639903  0.78646715  0.10437011     0.82600
N689        N  0.50557054  0.78750933  0.14403033    -0.79900
C690        C  0.50520528  0.74444751  0.33495816     0.80100
N691        N  0.50344649  0.78917472  0.35429169    -0.78200
C692        C  0.50347185  0.79017351  0.39385029     0.82500
N693        N  0.50362352  0.74641292  0.41438884    -0.78200
C694        C  0.50433840  0.70159257  0.39538136     0.82600
N695        N  0.50589576  0.70057931  0.35572988    -0.79900
C696        C  0.75606821  0.99204717  0.16497467     0.80100
N697        N  0.71244914  0.98999032  0.14440041    -0.78200
C698        C  0.71300466  0.98979011  0.10473679     0.82500
N699        N  0.75731383  0.99198267  0.08548487    -0.78200
C700        C  0.80092431  0.99417931  0.10587691     0.82600
N701        N  0.80018363  0.99402307  0.14545639    -0.79900
C702        C  0.75548820  0.99370786  0.33496207     0.80100
N703        N  0.71118128  0.99220738  0.35433208    -0.78200
C704        C  0.71019987  0.99223615  0.39390894     0.82500
N705        N  0.75374601  0.99411685  0.41444322    -0.78200
C706        C  0.79821271  0.99586710  0.39533583     0.82600
N707        N  0.79900879  0.99551755  0.35568622    -0.79900
C708        C  0.75576142  0.99225747  0.20847667    -0.05500
C709        C  0.79401196  0.96226991  0.22979608    -0.02600
C710        C  0.79420568  0.96303296  0.27100523     0.02400
C711        C  0.75605204  0.99366451  0.29145878    -0.05500
C712        C  0.71793068  0.52381355  0.27012631    -0.02600
C713        C  0.71776630  0.52307415  0.22892793     0.02400
C714        C  0.83250062  0.92907418  0.20953471     0.37800
C715        C  0.67961730  0.55725228  0.29036044     0.37000
C716        C  0.67929295  0.55567443  0.20773418     0.35400
C717        C  0.83298268  0.93078681  0.29218849     0.35400
N718        N  0.64854544  0.58162866  0.19092606    -0.39400
N719        N  0.86401250  0.90517761  0.30899249    -0.39400
N720        N  0.64897588  0.58387716  0.30638067    -0.38800
N721        N  0.86329995  0.90265913  0.19349655    -0.38800
C722        C  0.50594193  0.74387907  0.29143703    -0.05500
C723        C  0.97540892  0.71283957  0.27043679    -0.02600
C724        C  0.97534828  0.71311695  0.22923076     0.02400
C725        C  0.50592232  0.74435835  0.20839221    -0.05500
C726        C  0.53627417  0.77561133  0.22939178    -0.02600
C727        C  0.53634832  0.77532023  0.27061684     0.02400
C728        C  0.94230592  0.68184304  0.29103001     0.37000
C729        C  0.56881848  0.80719209  0.20880106     0.37000
C730        C  0.56909300  0.80654761  0.29143452     0.35400
C731        C  0.94209780  0.68240471  0.20844343     0.35400
N732        N  0.59505341  0.83162181  0.30795831    -0.39400
N733        N  0.91565603  0.65782314  0.19193282    -0.39400
N734        N  0.59466848  0.83258333  0.19252853    -0.38800
N735        N  0.91594024  0.65703568  0.30734990    -0.38800
C736        C  0.66633259  0.48523568  0.58278604     0.42300
N737        N  0.58784184  0.98382746  0.56926160     0.01200
C738        C  0.98911519  0.88879307  0.89992599    -0.06700
H739        H  0.60032966  0.52938331  0.87389576     0.06700
C740        C  0.97371393  0.65104422  0.95442689    -0.07000
Co741      Co  0.57327018  0.92501503  0.99651316     0.74200
N742        N  0.58049083  0.99163994  0.92672531    -0.26200
Co743      Co  0.00181292  0.49809180  0.92769851     0.74100
C744        C  0.50030096  0.65505510  0.91760474     0.42400
N745        N  0.97787998  0.59623604  0.54636704     0.00800
N746        N  0.99725914  0.57670973  0.93080615     0.00900
N747        N  0.53317516  0.84254387  0.94710641    -0.47100
H748        H  0.69146355  0.94066291  0.52739034     0.06700
N749        N  0.60777773  0.96521085  0.95365907     0.01200
N750        N  0.92306936  0.50394202  0.93036686     0.00900
C751        C  0.84472974  0.00068498  0.91735250     0.42600
N752        N  0.00399011  0.56844787  0.57318629    -0.25700
C753        C  0.53658475  0.83689769  0.54516615    -0.06600
N754        N  0.61900805  0.49871532  0.59613123    -0.46800
N755        N  0.89207679  0.98815599  0.90377055    -0.47000
C756        C  0.01018348  0.83296114  0.58206624     0.42300
N757        N  0.53251976  0.89177361  0.95337547     0.01200
N758        N  0.93037435  0.49619655  0.57297385    -0.25700
N759        N  0.61203725  0.95977194  0.53998515    -0.26200
N760        N  0.90290084  0.52246834  0.54606563     0.00800
H761        H  0.91091579  0.95798027  0.62567430     0.06700
H762        H  0.81920711  0.54497688  0.97279581     0.06800
N763        N  0.50672654  0.91957403  0.92641771    -0.26200
N764        N  0.97318111  0.60112504  0.95998123    -0.25800
N765        N  0.51346558  0.91126390  0.56889162     0.01200
C766        C  0.66227208  0.48970589  0.91418121     0.42600
C767        C  0.52150809  0.59924003  0.59972308    -0.07100
N768        N  0.89872452  0.52766938  0.95971590    -0.25800
H769        H  0.95526474  0.68070546  0.97268116     0.06700
N770        N  0.65710802  0.96308061  0.94723238    -0.47100
H771        H  0.54282125  0.58743762  0.62577724     0.06700
C772        C  0.84868804  0.99731904  0.58550652     0.42400
C773        C  0.66202024  0.95932437  0.54571406    -0.06600
Co774      Co  0.50902326  0.98987065  0.57193885     0.73800
N775        N  0.97691754  0.64547691  0.55279741    -0.46800
C776        C  0.00609100  0.83796124  0.91420457     0.42700
N777        N  0.99769710  0.88038006  0.59556227    -0.46800
Co778      Co  0.93725507  0.56278791  0.50316176     0.73900
C779        C  0.84881156  0.52698679  0.95428957    -0.07100
C780        C  0.61171325  0.50815187  0.90010717    -0.06700
N781        N  0.53727756  0.88679355  0.53963745    -0.26200
N782        N  0.51305950  0.60764377  0.90418052    -0.46900
H783        H  0.96791304  0.90058756  0.87381331     0.06700
C784        C  0.89934744  0.97931573  0.59955349    -0.07100
Cl785      Cl  0.50536801  0.49399714  0.49982717    -0.50100
C786        C  0.50409724  0.65008016  0.58566836     0.42500
H787        H  0.55489550  0.80720078  0.52687757     0.06700
N788        N  0.85358656  0.52413253  0.55249051    -0.46800
C789        C  0.50652188  0.74367672  0.66485637     0.80100
N790        N  0.50781024  0.69893014  0.64555589    -0.78200
C791        C  0.50704521  0.69790380  0.60598633     0.82500
N792        N  0.50663370  0.74165859  0.58540614    -0.78200
C793        C  0.50639915  0.78646727  0.60437019     0.82600
N794        N  0.50557071  0.78750949  0.64403037    -0.79900
C795        C  0.50520536  0.74444745  0.83495818     0.80100
N796        N  0.50344669  0.78917473  0.85429167    -0.78200
C797        C  0.50347186  0.79017347  0.89385029     0.82500
N798        N  0.50362345  0.74641300  0.91438883    -0.78200
C799        C  0.50433838  0.70159257  0.89538138     0.82600
N800        N  0.50589572  0.70057937  0.85572990    -0.79900
C801        C  0.75606827  0.99204719  0.66497467     0.80100
N802        N  0.71244920  0.98999044  0.64440039    -0.78200
C803        C  0.71300469  0.98979016  0.60473681     0.82500
N804        N  0.75731386  0.99198274  0.58548484    -0.78200
C805        C  0.80092438  0.99417926  0.60587692     0.82600
N806        N  0.80018372  0.99402291  0.64545635    -0.79900
C807        C  0.75548820  0.99370769  0.83496205     0.80100
N808        N  0.71118125  0.99220722  0.85433209    -0.78200
C809        C  0.71019984  0.99223610  0.89390892     0.82500
N810        N  0.75374596  0.99411704  0.91444320    -0.78200
C811        C  0.79821265  0.99586724  0.89533580     0.82600
N812        N  0.79900877  0.99551747  0.85568621    -0.79900
C813        C  0.75576153  0.99225755  0.70847664    -0.05500
C814        C  0.79401203  0.96227000  0.72979607    -0.02600
C815        C  0.79420574  0.96303297  0.77100519     0.02400
C816        C  0.75605206  0.99366440  0.79145879    -0.05500
C817        C  0.71793071  0.52381360  0.77012633    -0.02600
C818        C  0.71776628  0.52307420  0.72892794     0.02400
C819        C  0.83250067  0.92907419  0.70953469     0.37800
C820        C  0.67961724  0.55725224  0.79036048     0.37000
C821        C  0.67929297  0.55567446  0.70773416     0.35400
C822        C  0.83298266  0.93078673  0.79218842     0.35400
N823        N  0.64854566  0.58162888  0.69092596    -0.39400
N824        N  0.86401244  0.90517748  0.80899241    -0.39400
N825        N  0.64897579  0.58387706  0.80638067    -0.38800
N826        N  0.86330021  0.90265931  0.69349674    -0.38800
C827        C  0.50594212  0.74387901  0.79143706    -0.05500
C828        C  0.97540911  0.71283935  0.77043682    -0.02600
C829        C  0.97534826  0.71311685  0.72923080     0.02400
C830        C  0.50592234  0.74435847  0.70839225    -0.05500
C831        C  0.53627453  0.77561116  0.72939181    -0.02600
C832        C  0.53634868  0.77531994  0.77061686     0.02400
C833        C  0.94230603  0.68184269  0.79103003     0.37000
C834        C  0.56881914  0.80719161  0.70880105     0.37000
C835        C  0.56909369  0.80654705  0.79143465     0.35400
C836        C  0.94209791  0.68240454  0.70844351     0.35400
N837        N  0.59505419  0.83162086  0.80795850    -0.39400
N838        N  0.91565640  0.65782268  0.69193280    -0.39400
N839        N  0.59466924  0.83258275  0.69252848    -0.38800
N840        N  0.91594025  0.65703552  0.80734981    -0.38800
loop_ 
_geom_bond_atom_site_label_1 
_geom_bond_atom_site_label_2 
_geom_bond_distance 
_geom_bond_site_symmetry_2 
_ccdc_geom_bond_type 
C1           N19   1.350       .  A
C1          C248   1.455       .  S
C1          C278   1.463       .  S
N2           N24   1.320       .  A
N2          N229   1.325       .  A
N2          Co39   2.084       .  S
C3          N448   1.340       .  A
C3           C41   1.456       .  S
C3           H48   1.081       .  S
H4           C45   1.082       .  S
C5           N29   1.340       .  A
C5          C429   1.456       .  S
C5           H34   1.082       .  S
Co6          N14   2.085       .  S
Co6          N22   2.083       .  S
Co6         N129   2.082       .  S
Co6         N151   2.083       .  S
Co6        Cl365   2.425       .  S
N7          C255   1.340       .  A
N7           N14   1.320       .  A
N7         Co638   2.078       .  S
Co8          N11   2.080   1_565  S
Co8          N15   2.082   1_565  S
Co8         N637   2.078       .  S
Co8         N658   2.074       .  S
Co8        Cl575   2.471       .  S
C9           N47   1.349       .  A
C9           C64   1.463       .  S
C9          C425   1.456   1_455  S
N10          N17   1.320       .  A
N10          N40   1.324       .  A
N10         Co43   2.085       .  S
N11          N29   1.320       .  A
N11         N467   1.325       .  A
N12         C461   1.347       .  A
N12          N22   1.323       .  A
H13          C38   1.081       .  S
N14          N35   1.324       .  A
N15          N33   1.320       .  A
N15         N230   1.325   1_545  A
C16          N20   1.349       .  A
C16          C76   1.462       .  S
C16         C254   1.456       .  S
N17         C452   1.340       .  A
N17        Co669   2.076   1_545  S
C18          N46   1.339       .  A
C18         C441   1.456       .  S
C18          H52   1.081       .  S
N19         N212   1.325       .  A
N20         N225   1.325       .  A
C21          N42   1.349       .  A
C21         C438   1.456       .  S
C21         C478   1.462       .  S
N22          N28   1.320       .  A
N23         C259   1.339       .  A
N23          N25   1.320   1_565  A
N23        Co669   2.077       .  S
N24          C38   1.340       .  A
N24        Co111   2.082   1_554  S
N25          N53   1.325       .  A
N25         Co43   2.086       .  S
H26          C49   1.082       .  S
H27          C44   1.081       .  S
N28         C423   1.340   1_455  A
N28        Co638   2.074       .  S
N29        Co148   2.085       .  S
N30          N46   1.320       .  A
N30         N462   1.325   1_455  A
N30         Co39   2.080       .  S
C31         N245   1.347       .  A
C31          C45   1.456   1_565  S
C31         C284   1.460       .  S
C32         N437   1.340       .  A
C32          C51   1.456       .  S
C32          H36   1.081       .  S
N33          C44   1.340       .  A
N33        Co148   2.082       .  S
N35         C241   1.347       .  A
C37         N263   1.348       .  A
C37          C49   1.456       .  S
C37          C70   1.460       .  S
C38         C211   1.455       .  S
Co39        N647   2.076       .  S
Co39        N653   2.077   1_455  S
Co39       Cl260   2.471   1_554  S
N40         C471   1.347       .  A
C41         N432   1.347       .  A
C41         C482   1.457       .  S
N42         N450   1.325       .  A
Co43        N134   2.085   1_554  S
Co43        N138   2.082   1_554  S
Co43       Cl470   2.426   1_544  S
C44         C226   1.456       .  S
C45         N217   1.340   1_545  A
N46        Co111   2.083   1_554  S
N47         N431   1.325   1_455  A
C49         N233   1.339       .  A
Cl50       Co321   2.425       .  S
Cl50       Co533   2.471       .  S
Cl50       Co249   2.471   1_556  S
Cl50       Co463   2.426   1_466  S
C51         N460   1.347   1_455  A
C51          C56   1.459       .  S
N53         C247   1.348   1_545  A
C54          N55   1.358       .  A
C54          N59   1.360       .  A
C54          C95   1.490       .  S
N55          C56   1.355       .  A
C56          N57   1.355       .  A
N57          C58   1.356       .  A
C58          N59   1.358       .  A
C58         C441   1.462       .  S
C60          N61   1.357       .  A
C60          N65   1.361       .  A
C60          C92   1.490       .  S
N61          C62   1.354       .  A
C62          N63   1.355       .  A
C62         C461   1.457       .  S
N63          C64   1.356       .  A
C64          N65   1.358       .  A
C66          N67   1.360       .  A
C66          N71   1.357       .  A
C66          C78   1.489       .  S
N67          C68   1.358       .  A
C68          N69   1.358       .  A
C68         C211   1.463       .  S
N69          C70   1.357       .  A
C70          N71   1.355       .  A
C72          N73   1.357       .  A
C72          N77   1.359       .  A
C72          C81   1.489       .  S
N73          C74   1.355       .  A
C74          N75   1.357       .  A
C74         C241   1.460       .  S
N75          C76   1.358       .  A
C76          N77   1.357       .  A
C78          C79   1.417       .  A
C78         C293   1.415       .  A
C79          C80   1.411       .  A
C79          C84   1.453       .  S
C80          C81   1.415       .  A
C80          C87   1.453       .  S
C81         C292   1.417       .  A
C82          C83   1.410       .  A
C82         C291   1.417   1_545  A
C82          C85   1.453       .  S
C83         C288   1.415   1_545  A
C83          C86   1.453       .  S
C84          N91   1.158       .  T
C85          N90   1.158       .  T
C86          N88   1.158       .  T
C87          N89   1.158       .  T
C92          C97   1.417       .  A
C92         C513   1.415   1_455  A
C93          C94   1.410       .  A
C93         C512   1.415       .  A
C93          C98   1.452       .  S
C94         C515   1.417       .  A
C94         C101   1.453       .  S
C95          C96   1.415       .  A
C95         C514   1.417   1_455  A
C96          C97   1.411       .  A
C96          C99   1.452       .  S
C97         C100   1.453       .  S
C98         N105   1.157       .  T
C99         N104   1.158       .  T
C100        N102   1.158       .  T
C101        N103   1.157       .  T
C106        N124   1.350       .  A
C106        C353   1.455       .  S
C106        C383   1.463       .  S
N107        N334   1.325       .  A
N107        N129   1.320       .  A
N107       Co144   2.084       .  S
C108        N553   1.340       .  A
C108        C146   1.456       .  S
C108        H153   1.081       .  S
H109        C150   1.082       .  S
C110        N134   1.340       .  A
C110        C534   1.456       .  S
C110        H139   1.081       .  S
Co111       N119   2.085       .  S
Co111       N127   2.083       .  S
Co111      Cl260   2.425       .  S
N112        C360   1.340       .  A
N112        N119   1.320       .  A
N112       Co743   2.078       .  S
Co113       N742   2.078       .  S
Co113       N116   2.080   1_565  S
Co113       N763   2.074       .  S
Co113       N120   2.082   1_565  S
Co113      Cl470   2.471       .  S
C114        N152   1.349       .  A
C114        C530   1.456   1_455  S
C114        C169   1.463       .  S
N115        N122   1.320       .  A
N115        N145   1.324       .  A
N115       Co148   2.085       .  S
N116        N134   1.320       .  A
N116        N572   1.325       .  A
N117        C566   1.347       .  A
N117        N127   1.323       .  A
H118        C143   1.081       .  S
N119        N140   1.324       .  A
N120        N138   1.320       .  A
N120        N335   1.325   1_545  A
C121        N125   1.349       .  A
C121        C359   1.456       .  S
C121        C181   1.462       .  S
N122        C557   1.340       .  A
N122       Co774   2.076   1_545  S
C123        N151   1.339       .  A
C123        C546   1.456       .  S
C123        H157   1.081       .  S
N124        N317   1.325       .  A
N125        N330   1.325       .  A
C126        N147   1.349       .  A
C126        C543   1.456       .  S
C126        C583   1.462       .  S
N127        N133   1.320       .  A
N128        C364   1.339       .  A
N128        N130   1.320   1_565  A
N128       Co774   2.077       .  S
N129        C143   1.340       .  A
N130        N158   1.325       .  A
N130       Co148   2.086       .  S
H131        C154   1.082       .  S
H132        C149   1.081       .  S
N133        C528   1.340   1_455  A
N133       Co743   2.074       .  S
N135        N567   1.325   1_455  A
N135        N151   1.320       .  A
N135       Co144   2.080       .  S
C136        N350   1.347       .  A
C136        C150   1.456   1_565  S
C136        C389   1.460       .  S
C137        N542   1.340       .  A
C137        C156   1.456       .  S
C137        H141   1.081       .  S
N138        C149   1.340       .  A
N140        C346   1.347       .  A
C142        N368   1.348       .  A
C142        C154   1.456       .  S
C142        C175   1.460       .  S
C143        C316   1.455       .  S
Co144       N752   2.076       .  S
Co144       N758   2.077   1_455  S
Co144      Cl365   2.471       .  S
N145        C576   1.347       .  A
C146        N537   1.347       .  A
C146        C587   1.457       .  S
N147        N555   1.325       .  A
Co148      Cl575   2.426   1_545  S
C149        C331   1.456       .  S
C150        N322   1.340   1_545  A
N152        N536   1.325   1_455  A
C154        N338   1.339       .  A
Cl155      Co216   2.425       .  S
Cl155      Co428   2.471       .  S
Cl155      Co354   2.471       .  S
Cl155      Co568   2.426   1_465  S
C156        N565   1.347   1_455  A
C156        C161   1.459       .  S
N158        C352   1.348   1_545  A
C159        N160   1.358       .  A
C159        N164   1.360       .  A
C159        C200   1.490       .  S
N160        C161   1.355       .  A
C161        N162   1.355       .  A
N162        C163   1.356       .  A
C163        N164   1.358       .  A
C163        C546   1.462       .  S
C165        N166   1.357       .  A
C165        N170   1.361       .  A
C165        C197   1.490       .  S
N166        C167   1.354       .  A
C167        N168   1.355       .  A
C167        C566   1.457       .  S
N168        C169   1.356       .  A
C169        N170   1.358       .  A
C171        N172   1.360       .  A
C171        N176   1.357       .  A
C171        C183   1.489       .  S
N172        C173   1.358       .  A
C173        N174   1.358       .  A
C173        C316   1.463       .  S
N174        C175   1.357       .  A
C175        N176   1.355       .  A
C177        N178   1.357       .  A
C177        N182   1.359       .  A
C177        C186   1.489       .  S
N178        C179   1.355       .  A
C179        N180   1.357       .  A
C179        C346   1.460       .  S
N180        C181   1.358       .  A
C181        N182   1.357       .  A
C183        C184   1.417       .  A
C183        C398   1.415       .  A
C184        C185   1.411       .  A
C184        C189   1.453       .  S
C185        C186   1.415       .  A
C185        C192   1.453       .  S
C186        C397   1.417       .  A
C187        C396   1.417   1_545  A
C187        C188   1.410       .  A
C187        C190   1.453       .  S
C188        C393   1.415   1_545  A
C188        C191   1.453       .  S
C189        N196   1.158       .  T
C190        N195   1.158       .  T
C191        N193   1.158       .  T
C192        N194   1.158       .  T
C197        C618   1.415   1_455  A
C197        C202   1.417       .  A
C198        C617   1.415       .  A
C198        C199   1.410       .  A
C198        C203   1.452       .  S
C199        C620   1.417       .  A
C199        C206   1.453       .  S
C200        C619   1.417   1_455  A
C200        C201   1.415       .  A
C201        C202   1.411       .  A
C201        C204   1.452       .  S
C202        C205   1.453       .  S
C203        N210   1.157       .  T
C204        N209   1.158       .  T
C205        N207   1.158       .  T
C206        N208   1.157       .  T
C211        N229   1.350       .  A
N212        N234   1.320       .  A
N212       Co249   2.084       .  S
C213        N658   1.340       .  A
C213        C251   1.456       .  S
C213        H258   1.081       .  S
H214        C255   1.082       .  S
C215        N239   1.340       .  A
C215        C639   1.456       .  S
C215        H244   1.082       .  S
Co216       N339   2.082       .  S
Co216       N224   2.085       .  S
Co216       N361   2.083       .  S
Co216       N232   2.083       .  S
N217        N224   1.320       .  A
N217       Co428   2.078       .  S
Co218       N427   2.078       .  S
Co218       N221   2.080       .  S
Co218       N448   2.074       .  S
Co218       N225   2.082       .  S
Co218      Cl785   2.471       .  S
C219        N257   1.349       .  A
C219        C635   1.456   1_455  S
C219        C274   1.463       .  S
N220        N227   1.320       .  A
N220        N250   1.324       .  A
N220       Co253   2.085       .  S
N221        N239   1.320       .  A
N221        N677   1.325       .  A
N222        C671   1.347       .  A
N222        N232   1.323       .  A
H223        C248   1.081       .  S
N224        N245   1.324       .  A
N225        N243   1.320       .  A
C226        N230   1.349   1_545  A
C226        C286   1.462   1_545  S
N227        C662   1.340       .  A
N227       Co459   2.076       .  S
C228        N256   1.339       .  A
C228        C651   1.456       .  S
C228        H262   1.081       .  S
C231        N252   1.349       .  A
C231        C648   1.456       .  S
C231        C688   1.462       .  S
N232        N238   1.320       .  A
N233        N235   1.320       .  A
N233       Co459   2.077       .  S
N234        C248   1.340       .  A
N234       Co321   2.082   1_554  S
N235        N263   1.325       .  A
N235       Co253   2.086       .  S
H236        C259   1.082       .  S
H237        C254   1.081       .  S
N238        C633   1.340   1_455  A
N238       Co428   2.074       .  S
N239       Co358   2.085       .  S
N240        N672   1.325   1_455  A
N240        N256   1.320       .  A
N240       Co249   2.080       .  S
C241        C255   1.456       .  S
C242        N647   1.340       .  A
C242        C261   1.456       .  S
C242        H246   1.081       .  S
N243        C254   1.340       .  A
N243       Co358   2.082       .  S
C247        C259   1.456       .  S
C247        C280   1.460       .  S
Co249       N437   2.076   1_565  S
Co249       N443   2.077   1_455  S
N250        C681   1.347       .  A
C251        N642   1.347       .  A
C251        C692   1.457       .  S
N252        N660   1.325       .  A
Co253       N344   2.085   1_554  S
Co253       N348   2.082   1_554  S
Co253      Cl680   2.426   1_554  S
N256       Co321   2.083   1_554  S
N257        N641   1.325   1_455  A
Cl260      Co743   2.471       .  S
Cl260      Co673   2.426   1_456  S
C261        N670   1.347   1_455  A
C261        C266   1.459       .  S
C264        N265   1.358       .  A
C264        N269   1.360       .  A
C264        C305   1.490       .  S
N265        C266   1.355       .  A
C266        N267   1.355       .  A
N267        C268   1.356       .  A
C268        N269   1.358       .  A
C268        C651   1.462       .  S
C270        N271   1.357       .  A
C270        N275   1.361       .  A
C270        C302   1.490       .  S
N271        C272   1.354       .  A
C272        N273   1.355       .  A
C272        C671   1.457       .  S
N273        C274   1.356       .  A
C274        N275   1.358       .  A
C276        N277   1.360       .  A
C276        N281   1.357       .  A
C276        C288   1.489       .  S
N277        C278   1.358       .  A
C278        N279   1.358       .  A
N279        C280   1.357       .  A
C280        N281   1.355       .  A
C282        N283   1.357       .  A
C282        N287   1.359       .  A
C282        C291   1.489       .  S
N283        C284   1.355       .  A
C284        N285   1.357       .  A
N285        C286   1.358       .  A
C286        N287   1.357       .  A
C288        C289   1.417       .  A
C289        C290   1.411       .  A
C289        C294   1.453       .  S
C290        C291   1.415       .  A
C290        C297   1.453       .  S
C292        C293   1.410       .  A
C292        C295   1.453       .  S
C293        C296   1.453       .  S
C294        N301   1.158       .  T
C295        N300   1.158       .  T
C296        N298   1.158       .  T
C297        N299   1.158       .  T
C302        C723   1.415   1_455  A
C302        C307   1.417       .  A
C303        C722   1.415       .  A
C303        C304   1.410       .  A
C303        C308   1.452       .  S
C304        C725   1.417       .  A
C304        C311   1.453       .  S
C305        C724   1.417   1_455  A
C305        C306   1.415       .  A
C306        C307   1.411       .  A
C306        C309   1.452       .  S
C307        C310   1.453       .  S
C308        N315   1.157       .  T
C309        N314   1.158       .  T
C310        N312   1.158       .  T
C311        N313   1.157       .  T
C316        N334   1.350       .  A
N317        N339   1.320       .  A
N317       Co354   2.084       .  S
C318        N763   1.340       .  A
C318        C356   1.456       .  S
C318        H363   1.081       .  S
H319        C360   1.082       .  S
C320        N344   1.340       .  A
C320        C744   1.456       .  S
C320        H349   1.082       .  S
Co321       N329   2.085       .  S
Co321       N337   2.083       .  S
N322        N329   1.320       .  A
N322       Co533   2.078       .  S
Co323       N532   2.078       .  S
Co323       N326   2.080       .  S
Co323       N553   2.074       .  S
Co323       N330   2.082       .  S
Co323      Cl680   2.471       .  S
C324        N362   1.349       .  A
C324        C740   1.456   1_455  S
C324        C379   1.463       .  S
N325        N332   1.320       .  A
N325        N355   1.324       .  A
N325       Co358   2.085       .  S
N326        N344   1.320       .  A
N326        N782   1.325       .  A
N327        C776   1.347       .  A
N327        N337   1.323       .  A
H328        C353   1.081       .  S
N329        N350   1.324       .  A
N330        N348   1.320       .  A
C331        N335   1.349   1_545  A
C331        C391   1.462   1_545  S
N332        C767   1.340       .  A
N332       Co564   2.076       .  S
C333        N361   1.339       .  A
C333        C756   1.456       .  S
C333        H367   1.081       .  S
C336        N357   1.349       .  A
C336        C753   1.456       .  S
C336        C793   1.462       .  S
N337        N343   1.320       .  A
N338        N340   1.320       .  A
N338       Co564   2.077       .  S
N339        C353   1.340       .  A
N340        N368   1.325       .  A
N340       Co358   2.086       .  S
H341        C364   1.082       .  S
H342        C359   1.081       .  S
N343        C738   1.340   1_455  A
N343       Co533   2.074       .  S
N345        N777   1.325   1_455  A
N345        N361   1.320       .  A
N345       Co354   2.080       .  S
C346        C360   1.456       .  S
C347        N752   1.340       .  A
C347        C366   1.456       .  S
C347        H351   1.081       .  S
N348        C359   1.340       .  A
C352        C364   1.456       .  S
C352        C385   1.460       .  S
Co354       N542   2.076   1_565  S
Co354       N548   2.077   1_455  S
N355        C786   1.347       .  A
C356        N747   1.347       .  A
C356        C797   1.457       .  S
N357        N765   1.325       .  A
Co358      Cl785   2.426       .  S
N362        N746   1.325   1_455  A
Cl365      Co638   2.471       .  S
Cl365      Co778   2.426   1_455  S
C366        N775   1.347   1_455  A
C366        C371   1.459       .  S
C369        N370   1.358       .  A
C369        N374   1.360       .  A
C369        C410   1.490       .  S
N370        C371   1.355       .  A
C371        N372   1.355       .  A
N372        C373   1.356       .  A
C373        N374   1.358       .  A
C373        C756   1.462       .  S
C375        N376   1.357       .  A
C375        N380   1.361       .  A
C375        C407   1.490       .  S
N376        C377   1.354       .  A
C377        N378   1.355       .  A
C377        C776   1.457       .  S
N378        C379   1.356       .  A
C379        N380   1.358       .  A
C381        N382   1.360       .  A
C381        N386   1.357       .  A
C381        C393   1.489       .  S
N382        C383   1.358       .  A
C383        N384   1.358       .  A
N384        C385   1.357       .  A
C385        N386   1.355       .  A
C387        N388   1.357       .  A
C387        N392   1.359       .  A
C387        C396   1.489       .  S
N388        C389   1.355       .  A
C389        N390   1.357       .  A
N390        C391   1.358       .  A
C391        N392   1.357       .  A
C393        C394   1.417       .  A
C394        C395   1.411       .  A
C394        C399   1.453       .  S
C395        C396   1.415       .  A
C395        C402   1.453       .  S
C397        C398   1.410       .  A
C397        C400   1.453       .  S
C398        C401   1.453       .  S
C399        N406   1.158       .  T
C400        N405   1.158       .  T
C401        N403   1.158       .  T
C402        N404   1.158       .  T
C407        C828   1.415   1_455  A
C407        C412   1.417       .  A
C408        C827   1.415       .  A
C408        C409   1.410       .  A
C408        C413   1.452       .  S
C409        C830   1.417       .  A
C409        C416   1.453       .  S
C410        C829   1.417   1_455  A
C410        C411   1.415       .  A
C411        C412   1.411       .  A
C411        C414   1.452       .  S
C412        C415   1.453       .  S
C413        N420   1.157       .  T
C414        N419   1.158       .  T
C415        N417   1.158       .  T
C416        N418   1.157       .  T
C421        N439   1.350       .  A
C421        C668   1.455       .  S
C421        C698   1.463       .  S
N422        N649   1.325       .  A
N422        N444   1.320       .  A
N422       Co459   2.084       .  S
C423        C461   1.456   1_655  S
C423        H468   1.081       .  S
H424        C465   1.082       .  S
C425        N449   1.340       .  A
C425        H454   1.081       .  S
Co426       N549   2.082       .  S
Co426       N434   2.085       .  S
Co426       N571   2.083       .  S
Co426       N442   2.083       .  S
Co426      Cl785   2.425       .  S
N427        C675   1.340       .  A
N427        N434   1.320       .  A
Co428       N431   2.080   1_465  S
Co428       N435   2.082   1_465  S
C429        N467   1.349       .  A
C429        C484   1.463       .  S
N430        N437   1.320   1_655  A
N430        N460   1.324       .  A
N430       Co463   2.085       .  S
N431        N449   1.320       .  A
N432        N442   1.323       .  A
H433        C458   1.081       .  S
N434        N455   1.324       .  A
N435        N453   1.320       .  A
N435        N650   1.325   1_545  A
C436        N440   1.349       .  A
C436        C674   1.456       .  S
C436        C496   1.462       .  S
C438        N466   1.339       .  A
C438        H472   1.081       .  S
N439        N632   1.325       .  A
N440        N645   1.325       .  A
C441        N462   1.349   1_455  A
N442        N448   1.320       .  A
N443        C679   1.339       .  A
N443        N445   1.320   1_565  A
N444        C458   1.340       .  A
N444       Co531   2.082   1_554  S
N445        N473   1.325       .  A
N445       Co463   2.086       .  S
H446        C469   1.082       .  S
H447        C464   1.081       .  S
N449       Co568   2.085       .  S
N450        N466   1.320       .  A
N450       Co459   2.080       .  S
C451        N665   1.347       .  A
C451        C465   1.456   1_565  S
C451        C704   1.460       .  S
C452        C471   1.456       .  S
C452        H456   1.081       .  S
N453        C464   1.340       .  A
N453       Co568   2.082       .  S
N455        C661   1.347       .  A
C457        N683   1.348       .  A
C457        C469   1.456       .  S
C457        C490   1.460       .  S
C458        C631   1.455       .  S
Co459      Cl680   2.471   1_554  S
Co463       N554   2.085   1_554  S
Co463       N558   2.082   1_554  S
C464        C646   1.456       .  S
C465        N637   1.340   1_545  A
N466       Co531   2.083   1_554  S
C469        N653   1.339       .  A
Cl470      Co741   2.425       .  S
Cl470      Co669   2.471   1_556  S
C471        C476   1.459       .  S
N473        C667   1.348   1_545  A
C474        N475   1.358       .  A
C474        N479   1.360       .  A
C474        C515   1.490       .  S
N475        C476   1.355       .  A
C476        N477   1.355       .  A
N477        C478   1.356       .  A
C478        N479   1.358       .  A
C480        N481   1.357       .  A
C480        N485   1.361       .  A
C480        C512   1.490       .  S
N481        C482   1.354       .  A
C482        N483   1.355       .  A
N483        C484   1.356       .  A
C484        N485   1.358       .  A
C486        N487   1.360       .  A
C486        N491   1.357       .  A
C486        C498   1.489       .  S
N487        C488   1.358       .  A
C488        N489   1.358       .  A
C488        C631   1.463       .  S
N489        C490   1.357       .  A
C490        N491   1.355       .  A
C492        N493   1.357       .  A
C492        N497   1.359       .  A
C492        C501   1.489       .  S
N493        C494   1.355       .  A
C494        N495   1.357       .  A
C494        C661   1.460       .  S
N495        C496   1.358       .  A
C496        N497   1.357       .  A
C498        C499   1.417       .  A
C498        C713   1.415       .  A
C499        C500   1.411       .  A
C499        C504   1.453       .  S
C500        C501   1.415       .  A
C500        C507   1.453       .  S
C501        C712   1.417       .  A
C502        C711   1.417   1_545  A
C502        C503   1.410       .  A
C502        C505   1.453       .  S
C503        C708   1.415   1_545  A
C503        C506   1.453       .  S
C504        N511   1.158       .  T
C505        N510   1.158       .  T
C506        N508   1.158       .  T
C507        N509   1.158       .  T
C512        C517   1.417       .  A
C513        C514   1.410       .  A
C513        C518   1.452       .  S
C514        C521   1.453       .  S
C515        C516   1.415       .  A
C516        C517   1.411       .  A
C516        C519   1.452       .  S
C517        C520   1.453       .  S
C518        N525   1.157       .  T
C519        N524   1.158       .  T
C520        N522   1.158       .  T
C521        N523   1.157       .  T
C526        N544   1.350       .  A
C526        C773   1.455       .  S
C526        C803   1.463       .  S
N527        N754   1.325       .  A
N527        N549   1.320       .  A
N527       Co564   2.084       .  S
C528        C566   1.456   1_655  S
C528        H573   1.081       .  S
H529        C570   1.082       .  S
C530        N554   1.340       .  A
C530        H559   1.081       .  S
Co531       N539   2.085       .  S
Co531       N547   2.083       .  S
Co531      Cl680   2.425       .  S
N532        C780   1.340       .  A
N532        N539   1.320       .  A
Co533       N536   2.080   1_465  S
Co533       N540   2.082   1_465  S
C534        N572   1.349       .  A
C534        C589   1.463       .  S
N535        N542   1.320   1_655  A
N535        N565   1.324       .  A
N535       Co568   2.085       .  S
N536        N554   1.320       .  A
N537        N547   1.323       .  A
H538        C563   1.081       .  S
N539        N560   1.324       .  A
N540        N558   1.320       .  A
N540        N755   1.325   1_545  A
C541        N545   1.349       .  A
C541        C779   1.456       .  S
C541        C601   1.462       .  S
C543        N571   1.339       .  A
C543        H577   1.081       .  S
N544        N737   1.325       .  A
N545        N750   1.325       .  A
C546        N567   1.349   1_455  A
N547        N553   1.320       .  A
N548        C784   1.339       .  A
N548        N550   1.320   1_565  A
N549        C563   1.340       .  A
N550        N578   1.325       .  A
N550       Co568   2.086       .  S
H551        C574   1.082       .  S
H552        C569   1.081       .  S
N555        N571   1.320       .  A
N555       Co564   2.080       .  S
C556        N770   1.347       .  A
C556        C570   1.456   1_565  S
C556        C809   1.460       .  S
C557        C576   1.456       .  S
C557        H561   1.081       .  S
N558        C569   1.340       .  A
N560        C766   1.347       .  A
C562        N788   1.348       .  A
C562        C574   1.456       .  S
C562        C595   1.460       .  S
C563        C736   1.455       .  S
Co564      Cl785   2.471       .  S
C569        C751   1.456       .  S
C570        N742   1.340   1_545  A
C574        N758   1.339       .  A
Cl575      Co636   2.425       .  S
Cl575      Co774   2.471       .  S
C576        C581   1.459       .  S
N578        C772   1.348   1_545  A
C579        N580   1.358       .  A
C579        N584   1.360       .  A
C579        C620   1.490       .  S
N580        C581   1.355       .  A
C581        N582   1.355       .  A
N582        C583   1.356       .  A
C583        N584   1.358       .  A
C585        N586   1.357       .  A
C585        N590   1.361       .  A
C585        C617   1.490       .  S
N586        C587   1.354       .  A
C587        N588   1.355       .  A
N588        C589   1.356       .  A
C589        N590   1.358       .  A
C591        N592   1.360       .  A
C591        N596   1.357       .  A
C591        C603   1.489       .  S
N592        C593   1.358       .  A
C593        N594   1.358       .  A
C593        C736   1.463       .  S
N594        C595   1.357       .  A
C595        N596   1.355       .  A
C597        N598   1.357       .  A
C597        N602   1.359       .  A
C597        C606   1.489       .  S
N598        C599   1.355       .  A
C599        N600   1.357       .  A
C599        C766   1.460       .  S
N600        C601   1.358       .  A
C601        N602   1.357       .  A
C603        C604   1.417       .  A
C603        C818   1.415       .  A
C604        C605   1.411       .  A
C604        C609   1.453       .  S
C605        C606   1.415       .  A
C605        C612   1.453       .  S
C606        C817   1.417       .  A
C607        C816   1.417   1_545  A
C607        C608   1.410       .  A
C607        C610   1.453       .  S
C608        C813   1.415   1_545  A
C608        C611   1.453       .  S
C609        N616   1.158       .  T
C610        N615   1.158       .  T
C611        N613   1.158       .  T
C612        N614   1.158       .  T
C617        C622   1.417       .  A
C618        C619   1.410       .  A
C618        C623   1.452       .  S
C619        C626   1.453       .  S
C620        C621   1.415       .  A
C621        C622   1.411       .  A
C621        C624   1.452       .  S
C622        C625   1.453       .  S
C623        N630   1.157       .  T
C624        N629   1.158       .  T
C625        N627   1.158       .  T
C626        N628   1.157       .  T
C631        N649   1.350       .  A
N632        N654   1.320       .  A
N632       Co669   2.084       .  S
C633        C671   1.456   1_655  S
C633        H678   1.081       .  S
H634        C675   1.082       .  S
C635        N659   1.340       .  A
C635        H664   1.082       .  S
Co636       N759   2.082       .  S
Co636       N644   2.085       .  S
Co636       N781   2.083       .  S
Co636       N652   2.083       .  S
N637        N644   1.320       .  A
Co638       N641   2.080   1_455  S
Co638       N645   2.082   1_455  S
C639        N677   1.349       .  A
C639        C694   1.463       .  S
N640        N647   1.320   1_655  A
N640        N670   1.324       .  A
N640       Co673   2.085       .  S
N641        N659   1.320       .  A
N642        N652   1.323       .  A
H643        C668   1.081       .  S
N644        N665   1.324       .  A
N645        N663   1.320       .  A
C646        N650   1.349   1_545  A
C646        C706   1.462   1_545  S
C648        N676   1.339       .  A
C648        H682   1.081       .  S
C651        N672   1.349   1_455  A
N652        N658   1.320       .  A
N653        N655   1.320       .  A
N654        C668   1.340       .  A
N654       Co741   2.082   1_554  S
N655        N683   1.325       .  A
N655       Co673   2.086       .  S
H656        C679   1.082       .  S
H657        C674   1.081       .  S
N659       Co778   2.085       .  S
N660        N676   1.320       .  A
N660       Co669   2.080       .  S
C661        C675   1.456       .  S
C662        C681   1.456       .  S
C662        H666   1.081       .  S
N663        C674   1.340       .  A
N663       Co778   2.082       .  S
C667        C679   1.456       .  S
C667        C700   1.460       .  S
Co673       N764   2.085   1_554  S
Co673       N768   2.082   1_554  S
N676       Co741   2.083   1_554  S
C681        C686   1.459       .  S
C684        N685   1.358       .  A
C684        N689   1.360       .  A
C684        C725   1.490       .  S
N685        C686   1.355       .  A
C686        N687   1.355       .  A
N687        C688   1.356       .  A
C688        N689   1.358       .  A
C690        N691   1.357       .  A
C690        N695   1.361       .  A
C690        C722   1.490       .  S
N691        C692   1.354       .  A
C692        N693   1.355       .  A
N693        C694   1.356       .  A
C694        N695   1.358       .  A
C696        N697   1.360       .  A
C696        N701   1.357       .  A
C696        C708   1.489       .  S
N697        C698   1.358       .  A
C698        N699   1.358       .  A
N699        C700   1.357       .  A
C700        N701   1.355       .  A
C702        N703   1.357       .  A
C702        N707   1.359       .  A
C702        C711   1.489       .  S
N703        C704   1.355       .  A
C704        N705   1.357       .  A
N705        C706   1.358       .  A
C706        N707   1.357       .  A
C708        C709   1.417       .  A
C709        C710   1.411       .  A
C709        C714   1.453       .  S
C710        C711   1.415       .  A
C710        C717   1.453       .  S
C712        C713   1.410       .  A
C712        C715   1.453       .  S
C713        C716   1.453       .  S
C714        N721   1.158       .  T
C715        N720   1.158       .  T
C716        N718   1.158       .  T
C717        N719   1.158       .  T
C722        C727   1.417       .  A
C723        C724   1.410       .  A
C723        C728   1.452       .  S
C724        C731   1.453       .  S
C725        C726   1.415       .  A
C726        C727   1.411       .  A
C726        C729   1.452       .  S
C727        C730   1.453       .  S
C728        N735   1.157       .  T
C729        N734   1.158       .  T
C730        N732   1.158       .  T
C731        N733   1.157       .  T
C736        N754   1.350       .  A
N737        N759   1.320       .  A
N737       Co774   2.084       .  S
C738        C776   1.456   1_655  S
C738        H783   1.081       .  S
H739        C780   1.082       .  S
C740        N764   1.340       .  A
C740        H769   1.082       .  S
Co741       N749   2.085       .  S
Co741       N757   2.083       .  S
N742        N749   1.320       .  A
Co743       N746   2.080   1_455  S
Co743       N750   2.082   1_455  S
C744        N782   1.349       .  A
C744        C799   1.463       .  S
N745        N752   1.320   1_655  A
N745        N775   1.324       .  A
N745       Co778   2.085       .  S
N746        N764   1.320       .  A
N747        N757   1.323       .  A
H748        C773   1.081       .  S
N749        N770   1.324       .  A
N750        N768   1.320       .  A
C751        N755   1.349   1_545  A
C751        C811   1.462   1_545  S
C753        N781   1.339       .  A
C753        H787   1.081       .  S
C756        N777   1.349   1_455  A
N757        N763   1.320       .  A
N758        N760   1.320       .  A
N759        C773   1.340       .  A
N760        N788   1.325       .  A
N760       Co778   2.086       .  S
H761        C784   1.082       .  S
H762        C779   1.081       .  S
N765        N781   1.320       .  A
N765       Co774   2.080       .  S
C766        C780   1.456       .  S
C767        C786   1.456       .  S
C767        H771   1.081       .  S
N768        C779   1.340       .  A
C772        C784   1.456       .  S
C772        C805   1.460       .  S
C786        C791   1.459       .  S
C789        N790   1.358       .  A
C789        N794   1.360       .  A
C789        C830   1.490       .  S
N790        C791   1.355       .  A
C791        N792   1.355       .  A
N792        C793   1.356       .  A
C793        N794   1.358       .  A
C795        N796   1.357       .  A
C795        N800   1.361       .  A
C795        C827   1.490       .  S
N796        C797   1.354       .  A
C797        N798   1.355       .  A
N798        C799   1.356       .  A
C799        N800   1.358       .  A
C801        N802   1.360       .  A
C801        N806   1.357       .  A
C801        C813   1.489       .  S
N802        C803   1.358       .  A
C803        N804   1.358       .  A
N804        C805   1.357       .  A
C805        N806   1.355       .  A
C807        N808   1.357       .  A
C807        N812   1.359       .  A
C807        C816   1.489       .  S
N808        C809   1.355       .  A
C809        N810   1.357       .  A
N810        C811   1.358       .  A
C811        N812   1.357       .  A
C813        C814   1.417       .  A
C814        C815   1.411       .  A
C814        C819   1.453       .  S
C815        C816   1.415       .  A
C815        C822   1.453       .  S
C817        C818   1.410       .  A
C817        C820   1.453       .  S
C818        C821   1.453       .  S
C819        N826   1.158       .  T
C820        N825   1.158       .  T
C821        N823   1.158       .  T
C822        N824   1.158       .  T
C827        C832   1.417       .  A
C828        C829   1.410       .  A
C828        C833   1.452       .  S
C829        C836   1.453       .  S
C830        C831   1.415       .  A
C831        C832   1.411       .  A
C831        C834   1.452       .  S
C832        C835   1.453       .  S
C833        N840   1.157       .  T
C834        N839   1.158       .  T
C835        N837   1.158       .  T
C836        N838   1.157       .  T
