geometry optimzed in LAMMPS
_audit_creation_date              2020-12-01 
_audit_creation_method            'lammps2cif' 
_symmetry_space_group_name_H-M    'P1' 
_symmetry_Int_Tables_number       1 
_symmetry_cell_setting            triclinic 
loop_ 
_symmetry_equiv_pos_as_xyz 
  x,y,z 
_cell_length_a                    30.25809354 
_cell_length_b                    36.26058779733833 
_cell_length_c                    37.49738712179886 
_cell_angle_alpha                 90.12697821622397 
_cell_angle_beta                  89.78757468157043 
_cell_angle_gamma                 90.29115919489854 
loop_ 
_atom_site_label 
_atom_site_type_symbol 
_atom_site_fract_x 
_atom_site_fract_y 
_atom_site_fract_z 
_atom_site_charge 
O1          O  0.51063887  0.80265514  0.09649147    -0.74500
O2          O  0.50900535  0.74983502  0.18428636    -0.74500
O3          O  0.57295941  0.77496113  0.13975363    -0.74500
O4          O  0.44619822  0.77738785  0.14053859    -0.74600
O5          O  0.44489264  0.72427332  0.11053538    -0.74500
O6          O  0.57093115  0.72102164  0.11095185    -0.74500
O7          O  0.50678069  0.69649827  0.15463561    -0.74500
O8          O  0.50945595  0.74941270  0.06665670    -0.74500
Ni9        Ni  0.50969062  0.77810537  0.14137426     1.25400
Ni10       Ni  0.50785100  0.72094422  0.10958467     1.25400
C11         C  0.51090815  0.78475807  0.06706093     0.87700
C12         C  0.50827976  0.71451787  0.18401216     0.87600
C13         C  0.59264265  0.74744961  0.12535480     0.87700
C14         C  0.42462798  0.75109396  0.12556199     0.87800
O15         O  0.01054239  0.69769668  0.09878625    -0.74500
O16         O  0.00730418  0.75038835  0.18714034    -0.74500
O17         O  0.94577251  0.72241227  0.14212874    -0.74500
O18         O  0.07194614  0.72515347  0.14345610    -0.74600
O19         O  0.07167432  0.77913278  0.11496379    -0.74500
O20         O  0.94501768  0.77544054  0.11220848    -0.74500
O21         O  0.00604968  0.80355873  0.15743081    -0.74500
O22         O  0.01076023  0.75108533  0.06942802    -0.74500
Ni23       Ni  0.00888563  0.72205228  0.14400084     1.25400
Ni24       Ni  0.00830149  0.77920937  0.11245299     1.25400
C25         C  0.01132811  0.71577587  0.06949208     0.87700
C26         C  0.00657363  0.78572542  0.18681712     0.87600
C27         C  0.92450573  0.74822035  0.12661173     0.87700
C28         C  0.09257105  0.75238849  0.12932728     0.87800
O29         O  0.58655940  0.30453752  0.34918867    -0.74500
O30         O  0.58535559  0.25145397  0.43713539    -0.74500
O31         O  0.64926762  0.27524983  0.39157410    -0.74500
O32         O  0.52283822  0.28111873  0.39446820    -0.74600
O33         O  0.51867557  0.22808890  0.36446277    -0.74500
O34         O  0.64477772  0.22168652  0.36242499    -0.74500
O35         O  0.58046323  0.19847157  0.40712579    -0.74500
O36         O  0.58276483  0.25131657  0.31946089    -0.74500
Ni37       Ni  0.58623524  0.27998456  0.39421979     1.25400
Ni38       Ni  0.58153026  0.22304108  0.36229993     1.25400
C39         C  0.58458094  0.28659777  0.31977693     0.87700
C40         C  0.58237662  0.21617450  0.43662461     0.87600
C41         C  0.66783500  0.24755475  0.37651725     0.87700
C42         C  0.49988298  0.25553587  0.37974361     0.87800
O43         O  0.08915067  0.19769066  0.34478851    -0.74500
O44         O  0.08152233  0.25057404  0.43258536    -0.74500
O45         O  0.02229191  0.22005681  0.38722604    -0.74500
O46         O  0.14856033  0.22818711  0.38958567    -0.74600
O47         O  0.14536152  0.28196450  0.36091293    -0.74500
O48         O  0.01944881  0.27309350  0.35734184    -0.74500
O49         O  0.07754761  0.30370479  0.40301555    -0.74500
O50         O  0.08686512  0.25078550  0.31501504    -0.74500
Ni51       Ni  0.08558772  0.22227191  0.38965962     1.25400
Ni52       Ni  0.08223794  0.27925794  0.35795980     1.25400
C53         C  0.08879345  0.21546541  0.31536835     0.87700
C54         C  0.07775710  0.28574818  0.43238131     0.87600
C55         C  0.00005243  0.24547013  0.37194083     0.87700
C56         C  0.16770264  0.25627021  0.37555518     0.87800
O57         O  0.51001473  0.80324048  0.40492886    -0.74500
O58         O  0.51057452  0.75058279  0.31676554    -0.74500
O59         O  0.44696308  0.77987409  0.35900113    -0.74500
O60         O  0.57299532  0.77431530  0.36317967    -0.74600
O61         O  0.56853306  0.72080643  0.39228346    -0.74500
O62         O  0.44212587  0.72641990  0.38806694    -0.74500
O63         O  0.50601010  0.69735203  0.34623796    -0.74500
O64         O  0.50511518  0.75003706  0.43439494    -0.74500
Ni65       Ni  0.51023802  0.77884958  0.35985339     1.25400
Ni66       Ni  0.50512210  0.72175269  0.39131311     1.25400
C67         C  0.50855237  0.78526971  0.43424242     0.87700
C68         C  0.50889258  0.71527733  0.31695533     0.87600
C69         C  0.42370281  0.75393252  0.37277968     0.87700
C70         C  0.59150365  0.74712907  0.37885731     0.87800
O71         O  0.00995725  0.69943661  0.40707303    -0.74500
O72         O  0.00480526  0.75221055  0.31950583    -0.74500
O73         O  0.07056418  0.72739388  0.36139335    -0.74500
O74         O  0.94396626  0.72424927  0.36562648    -0.74600
O75         O  0.94433459  0.77770461  0.39512588    -0.74500
O76         O  0.07060317  0.78096927  0.39075772    -0.74500
O77         O  0.00503977  0.80557560  0.34914453    -0.74500
O78         O  0.01012397  0.75259637  0.43703485    -0.74500
Ni79       Ni  0.00728524  0.72395427  0.36230864     1.25400
Ni80       Ni  0.00745064  0.78108748  0.39414422     1.25400
C81         C  0.01078458  0.71724135  0.43653970     0.87700
C82         C  0.00499458  0.78752435  0.31975924     0.87600
C83         C  0.09137722  0.75482417  0.37510062     0.87700
C84         C  0.92329259  0.75051519  0.38124256     0.87800
C85         C  0.52741629  0.86239041  0.50077654     0.03100
C86         C  0.52276241  0.84320183  0.03303054    -0.13100
C87         C  0.51358382  0.80519087  0.03316235     0.00600
C88         C  0.50802893  0.78660578  0.00068156    -0.11600
C89         C  0.51225306  0.80540437  0.46828834     0.03100
C90         C  0.52190075  0.84328944  0.46852632    -0.11000
H91         H  0.52672630  0.85783519  0.05803856     0.08700
H92         H  0.50109906  0.75726556  0.00063928     0.06200
H93         H  0.52613726  0.85786332  0.44354857     0.06100
C94         C  0.57531746  0.13698020  0.50211759     0.03100
C95         C  0.57731573  0.15687396  0.47013375    -0.13100
C96         C  0.58080187  0.19547703  0.47042682     0.00600
C97         C  0.58235148  0.21413621  0.50315511    -0.11600
C98         C  0.58081944  0.19474816  0.03545915     0.03100
C99         C  0.57753937  0.15613105  0.03474207    -0.11000
H100        H  0.57654951  0.14213287  0.44498068     0.08700
H101        H  0.58491926  0.24394118  0.50350143     0.06200
H102        H  0.57528634  0.14089151  0.05950405     0.06100
C103        C  0.57706633  0.36438932  0.25297581     0.03100
C104        C  0.57994052  0.34529798  0.28533844    -0.13100
C105        C  0.58366837  0.30676420  0.28571098     0.00600
C106        C  0.58489382  0.28739348  0.25329584    -0.11600
C107        C  0.58232783  0.30612519  0.22072624     0.03100
C108        C  0.57855726  0.34467314  0.22078403    -0.11000
H109        H  0.57792714  0.36043574  0.31023203     0.08700
H110        H  0.58767963  0.25762261  0.25340749     0.06200
H111        H  0.57663935  0.35946713  0.19576987     0.06100
C112        C  0.52329868  0.63746378  0.25071544     0.03100
C113        C  0.51847764  0.65630518  0.21836458    -0.13100
C114        C  0.51041546  0.69437492  0.21804505     0.00600
C115        C  0.50678422  0.71346634  0.25048649    -0.11600
C116        C  0.51113550  0.69488220  0.28300191     0.03100
C117        C  0.51922101  0.65685296  0.28290830    -0.11000
H118        H  0.52248459  0.64146957  0.19345695     0.08700
H119        H  0.50078324  0.74289660  0.25044212     0.06200
H120        H  0.52267367  0.64225183  0.30791628     0.06100
C121        C  0.01874135  0.86437317  0.25241752     0.03100
C122        C  0.01507910  0.84459247  0.22044159    -0.13100
C123        C  0.00754063  0.80642406  0.22066093     0.00600
C124        C  0.00311722  0.78810584  0.25333191    -0.11600
C125        C  0.00670317  0.80753507  0.28562059     0.03100
C126        C  0.01453461  0.84573467  0.28496630    -0.11000
H127        H  0.01939698  0.85893806  0.19533827     0.08700
H128        H  0.99748931  0.75857897  0.25360486     0.06200
H129        H  0.01752325  0.86103012  0.30970341     0.06100
C130        C  0.07971732  0.13691130  0.24911637     0.03100
C131        C  0.08374003  0.15629863  0.28133117    -0.13100
C132        C  0.08908316  0.19481229  0.28143140     0.00600
C133        C  0.09135153  0.21369543  0.24887609    -0.11600
C134        C  0.08757018  0.19459869  0.21646334     0.03100
C135        C  0.08212242  0.15618712  0.21681449    -0.11000
H136        H  0.08066304  0.14150588  0.30629870     0.08700
H137        H  0.09506944  0.24342373  0.24878739     0.06200
H138        H  0.07893792  0.14119265  0.19192255     0.06100
C139        C  0.06110179  0.36288993  0.49956588     0.03100
C140        C  0.06500640  0.34377444  0.46709613    -0.13100
C141        C  0.07349043  0.30574817  0.46654088     0.00600
C142        C  0.07753394  0.28671536  0.49887219    -0.11600
C143        C  0.07368678  0.30543723  0.03171465     0.03100
C144        C  0.06560900  0.34355457  0.03178865    -0.11000
H145        H  0.06072717  0.35844137  0.44222605     0.08700
H146        H  0.08387818  0.25734157  0.49863265     0.06200
H147        H  0.06303899  0.35821866  0.05689996     0.06100
C148        C  0.01663024  0.63796345  0.50201458     0.03100
C149        C  0.01546817  0.65711290  0.03450999    -0.13100
C150        C  0.01273249  0.69573831  0.03525080     0.00600
C151        C  0.01146593  0.71525572  0.50302412    -0.11600
C152        C  0.01243842  0.69655297  0.47032324     0.03100
C153        C  0.01476786  0.65789974  0.47003467    -0.11000
H154        H  0.01755127  0.64191460  0.05927674     0.08700
H155        H  0.00940291  0.74507020  0.50337147     0.06200
H156        H  0.01479748  0.64319241  0.44486336     0.06100
O157        O  0.58309348  0.25016830  0.06947960    -0.74500
O158        O  0.58447828  0.30319172  0.15735004    -0.74500
O159        O  0.64707783  0.27484030  0.11372770    -0.74500
O160        O  0.52067276  0.27832660  0.11324123    -0.74600
O161        O  0.51789652  0.22459737  0.14203291    -0.74500
O162        O  0.64434181  0.22209307  0.14405681    -0.74500
O163        O  0.58097270  0.25014040  0.18716623    -0.74500
O164        O  0.58119368  0.19692614  0.09905129    -0.74500
Ni165      Ni  0.58395531  0.27850871  0.11239150     1.25400
Ni166      Ni  0.58102561  0.22155450  0.14418502     1.25400
C167        C  0.58180548  0.21487058  0.06967117     0.87700
C168        C  0.58271076  0.28546602  0.18679160     0.87600
C169        C  0.66662757  0.24795079  0.12908943     0.87700
C170        C  0.49846449  0.25183642  0.12721521     0.87800
O171        O  0.01929583  0.27502916  0.14121766    -0.74500
O172        O  0.14556309  0.27808079  0.13622681    -0.74500
O173        O  0.07894282  0.30292827  0.09501527    -0.74500
O174        O  0.08582469  0.25018083  0.18276432    -0.74600
O175        O  0.08578155  0.19686079  0.15304701    -0.74500
O176        O  0.07906975  0.24967841  0.06519682    -0.74500
O177        O  0.14573113  0.22453821  0.10683698    -0.74500
O178        O  0.01933601  0.22132949  0.11193387    -0.74500
Ni179      Ni  0.08246110  0.27843064  0.13988867     1.25400
Ni180      Ni  0.08250743  0.22123030  0.10810557     1.25400
C181        C  0.99866427  0.24763658  0.12740212     0.87700
C182        C  0.16648204  0.25169434  0.12102826     0.87600
C183        C  0.07753334  0.28501896  0.06559775     0.87700
C184        C  0.08665392  0.21486539  0.18244456     0.87800
C185        C  0.21523133  0.25255214  0.12036197    -0.01300
C186        C  0.23771474  0.28622206  0.12317761    -0.09300
C187        C  0.28374449  0.28749158  0.12370121    -0.18200
C188        C  0.30897872  0.25481559  0.12198177     0.04200
C189        C  0.28594539  0.22059341  0.11978155     0.18400
C190        C  0.23954448  0.21980601  0.11835538    -0.19600
C191        C  0.30932768  0.18737855  0.11961847    -0.20900
C192        C  0.35518103  0.18737571  0.12199912    -0.19400
C193        C  0.37883234  0.22060998  0.12369146     0.19800
C194        C  0.35613887  0.25484866  0.12297601     0.01900
C195        C  0.38169864  0.28762493  0.12299650    -0.14100
C196        C  0.42771153  0.28641502  0.12421142    -0.11900
C197        C  0.44977901  0.25268202  0.12599364     0.01400
C198        C  0.42516107  0.21984441  0.12580673    -0.24000
H199        H  0.21956934  0.31184793  0.12490153     0.09500
H200        H  0.29848531  0.31447268  0.12621604     0.13000
H201        H  0.22227772  0.19356900  0.11675498     0.11700
H202        H  0.29199099  0.16119016  0.11812054     0.12900
H203        H  0.37229300  0.16118822  0.12225808     0.12000
H204        H  0.36723460  0.31466341  0.12154749     0.09000
H205        H  0.44614826  0.31210705  0.12412020     0.12300
H206        H  0.44217107  0.19359780  0.12652951     0.14200
C207        C  0.95029895  0.24667788  0.12883647    -0.01300
C208        C  0.92825284  0.21838755  0.14692681    -0.09300
C209        C  0.88210524  0.21747438  0.14825025    -0.18200
C210        C  0.85671133  0.24458214  0.13063861     0.04200
C211        C  0.87971807  0.27268675  0.11157508     0.18400
C212        C  0.92605910  0.27384423  0.11143069    -0.19600
C213        C  0.85640378  0.29927660  0.09245103    -0.20900
C214        C  0.81053348  0.29875951  0.09189160    -0.19400
C215        C  0.78682921  0.27204577  0.11097770     0.19800
C216        C  0.80947072  0.24468175  0.13085600     0.01900
C217        C  0.78375932  0.21882117  0.15017464    -0.14100
C218        C  0.73764268  0.21992843  0.14945857    -0.11900
C219        C  0.71553605  0.24678933  0.12959517     0.01400
C220        C  0.74047195  0.27273681  0.11040394    -0.24000
H221        H  0.94686514  0.19713828  0.16039750     0.09500
H222        H  0.86734121  0.19494083  0.16281251     0.13000
H223        H  0.94344475  0.29545951  0.09704252     0.11700
H224        H  0.87379468  0.32052232  0.07762438     0.12900
H225        H  0.79344963  0.31963674  0.07665153     0.12000
H226        H  0.79825945  0.19758636  0.16637360     0.09000
H227        H  0.71922562  0.19969907  0.16475734     0.12300
H228        H  0.72378638  0.29369333  0.09495279     0.14200
C229        C  0.02033263  0.59719398  0.50138899    -0.01300
C230        C  0.99637208  0.57556051  0.02567444    -0.09300
C231        C  0.00065301  0.53727016  0.02580053    -0.18200
C232        C  0.02939852  0.51925377  0.50153754     0.04200
C233        C  0.05249307  0.54133530  0.47623864     0.18400
C234        C  0.04786944  0.57978611  0.47645068    -0.19600
C235        C  0.08052155  0.52500092  0.45108534    -0.20900
C236        C  0.08672514  0.48709792  0.45079454    -0.19400
C237        C  0.06512042  0.46462450  0.47569697     0.19800
C238        C  0.03592483  0.48026473  0.50133025     0.01900
C239        C  0.01442075  0.45619402  0.02551436    -0.14100
C240        C  0.02258748  0.41835816  0.02480435    -0.11900
C241        C  0.05219596  0.40313187  0.49994750     0.01400
C242        C  0.07296419  0.42653520  0.47527543    -0.24000
H243        H  0.97410930  0.58828611  0.04468899     0.09500
H244        H  0.98135906  0.52262344  0.04542274     0.13000
H245        H  0.06662434  0.59628951  0.45759114     0.11700
H246        H  0.09802428  0.54169540  0.43162796     0.12900
H247        H  0.10887247  0.47530186  0.43110763     0.12000
H248        H  0.99145528  0.46565246  0.04550147     0.09000
H249        H  0.00536485  0.40081536  0.04368018     0.12300
H250        H  0.09605356  0.41517237  0.45605098     0.14200
C251        C  0.02717418  0.90450147  0.25150341    -0.01300
C252        C  0.00290650  0.92679727  0.22844709    -0.09300
C253        C  0.01049047  0.96463862  0.22699826    -0.18200
C254        C  0.04290328  0.98152786  0.24874406     0.04200
C255        C  0.06782704  0.95865537  0.27187725     0.18400
C256        C  0.05970567  0.92053739  0.27311280    -0.19600
C257        C  0.10063259  0.97395712  0.29365005    -0.20900
C258        C  0.10901749  0.01167024  0.29321536    -0.19400
C259        C  0.08478949  0.03495548  0.27100387     0.19800
C260        C  0.05141080  0.02023646  0.24838465     0.01900
C261        C  0.02785857  0.04495856  0.22649854    -0.14100
C262        C  0.03725877  0.08256028  0.22693490    -0.11900
C263        C  0.07028782  0.09687392  0.24909039     0.01400
C264        C  0.09379312  0.07296272  0.27123151    -0.24000
H265        H  0.97746374  0.91490246  0.21165863     0.09500
H266        H  0.99031643  0.97977279  0.20859586     0.13000
H267        H  0.07905796  0.90321923  0.29061378     0.11700
H268        H  0.11985870  0.95664868  0.31122260     0.12900
H269        H  0.13455893  0.02271877  0.31044822     0.12000
H270        H  0.00184888  0.03628466  0.20881947     0.09000
H271        H  0.01812350  0.10067122  0.21008853     0.12300
H272        H  0.11954405  0.08393845  0.28832814     0.14200
C273        C  0.57114018  0.40481272  0.25282048    -0.01300
C274        C  0.59630225  0.42735925  0.27534907    -0.09300
C275        C  0.59045164  0.46546535  0.27557767    -0.18200
C276        C  0.55891509  0.48226317  0.25316511     0.04200
C277        C  0.53354983  0.45912832  0.23030873     0.18400
C278        C  0.53983219  0.42089086  0.23037625    -0.19600
C279        C  0.50190321  0.47421330  0.20758250    -0.20900
C280        C  0.49471815  0.51196562  0.20704613    -0.19400
C281        C  0.51889381  0.53547828  0.22932527     0.19800
C282        C  0.55141326  0.52106109  0.25270665     0.01900
C283        C  0.57471982  0.54612396  0.27474031    -0.14100
C284        C  0.56566142  0.58374683  0.27383706    -0.11900
C285        C  0.53333946  0.59764361  0.25096522     0.01400
C286        C  0.51034344  0.57339849  0.22858035    -0.24000
H287        H  0.62097781  0.41546328  0.29267277     0.09500
H288        H  0.61115422  0.48090689  0.29358267     0.13000
H289        H  0.51977980  0.40347366  0.21325256     0.11700
H290        H  0.48251283  0.45667186  0.19011354     0.12900
H291        H  0.46991163  0.52283604  0.18919227     0.12000
H292        H  0.60000939  0.53761907  0.29305407     0.09000
H293        H  0.58429973  0.60215103  0.29098477     0.12300
H294        H  0.48500872  0.58402183  0.21104601     0.14200
C295        C  0.53731741  0.90245187  0.50065104    -0.01300
C296        C  0.56785939  0.91750563  0.02437708    -0.09300
C297        C  0.57708982  0.95529181  0.52462259    -0.18200
C298        C  0.55470725  0.97945409  0.50134081     0.04200
C299        C  0.52359799  0.96392587  0.47719328     0.18400
C300        C  0.51531829  0.92587545  0.47703982    -0.19600
C301        C  0.50038288  0.98648006  0.45363516    -0.20900
C302        C  0.50679932  0.02440106  0.45389918    -0.19400
C303        C  0.53672671  0.04063361  0.47762218     0.19800
C304        C  0.56150374  0.01843912  0.50146461     0.01900
C305        C  0.59157300  0.03633664  0.52463174    -0.14100
C306        C  0.59628757  0.07460605  0.02493085    -0.11900
C307        C  0.57102633  0.09631569  0.50147779     0.01400
C308        C  0.54165454  0.07908798  0.47786719    -0.24000
H309        H  0.58565411  0.89980996  0.04253348     0.09500
H310        H  0.60095220  0.96459704  0.04385313     0.13000
H311        H  0.49080908  0.91455076  0.45899625     0.11700
H312        H  0.47674568  0.97473940  0.43510307     0.12900
H313        H  0.48798571  0.04118229  0.43556919     0.12000
H314        H  0.61157819  0.02156709  0.04380997     0.09000
H315        H  0.61954663  0.08726543  0.04318579     0.12300
H316        H  0.52186143  0.09574731  0.46009359     0.14200
C317        C  0.14002810  0.75621531  0.37290501    -0.01300
C318        C  0.16242236  0.79005728  0.37109278    -0.09300
C319        C  0.20856738  0.79134710  0.36918818    -0.18200
C320        C  0.23382513  0.75860109  0.36988217     0.04200
C321        C  0.21067859  0.72441957  0.37218525     0.18400
C322        C  0.16434449  0.72353850  0.37299619    -0.19600
C323        C  0.23385155  0.69124623  0.37433459    -0.20900
C324        C  0.27969366  0.69119162  0.37497716    -0.19400
C325        C  0.30352570  0.72424722  0.37268032     0.19800
C326        C  0.28109396  0.75842698  0.36924481     0.01900
C327        C  0.30706091  0.79077674  0.36545416    -0.14100
C328        C  0.35323278  0.78921500  0.36608895    -0.11900
C329        C  0.37494897  0.75556404  0.37093931     0.01400
C330        C  0.34981553  0.72320633  0.37394545    -0.24000
H331        H  0.14412030  0.81565807  0.37083393     0.09500
H332        H  0.22350469  0.81836515  0.36791931     0.13000
H333        H  0.14711608  0.69729331  0.37477417     0.11700
H334        H  0.21636557  0.66515022  0.37616637     0.12900
H335        H  0.29665368  0.66505329  0.37729340     0.12000
H336        H  0.29269043  0.81763506  0.36177667     0.09000
H337        H  0.37200718  0.81457573  0.36337066     0.12300
H338        H  0.36638923  0.69695559  0.37699452     0.14200
C339        C  0.63997661  0.74715858  0.38215711    -0.01300
C340        C  0.66211510  0.78078633  0.38637159    -0.09300
C341        C  0.70795418  0.78218962  0.38850430    -0.18200
C342        C  0.73353350  0.74980412  0.38570474     0.04200
C343        C  0.71088555  0.71553498  0.38179143     0.18400
C344        C  0.66438023  0.71444070  0.38066579    -0.19600
C345        C  0.73486150  0.68278743  0.37825398    -0.20900
C346        C  0.78087923  0.68342841  0.37764690    -0.19400
C347        C  0.80407882  0.71677677  0.38102726     0.19800
C348        C  0.78070124  0.75036339  0.38580893     0.01900
C349        C  0.80560288  0.78316276  0.39007115    -0.14100
C350        C  0.85156799  0.78278382  0.38887499    -0.11900
C351        C  0.87450215  0.74989016  0.38314785     0.01400
C352        C  0.85056014  0.71686823  0.37941925    -0.24000
H353        H  0.64373579  0.80630103  0.38814349     0.09500
H354        H  0.72227134  0.80927856  0.39164119     0.13000
H355        H  0.64724597  0.68830864  0.37738058     0.11700
H356        H  0.71790032  0.65656002  0.37531716     0.12900
H357        H  0.79845360  0.65767108  0.37429507     0.12000
H358        H  0.79067353  0.80973432  0.39441227     0.09000
H359        H  0.86928051  0.80862764  0.39193912     0.12300
H360        H  0.86812321  0.69116999  0.37547270     0.14200
C361        C  0.45105433  0.25744931  0.38012169    -0.01300
C362        C  0.42908845  0.29019947  0.38893070    -0.09300
C363        C  0.38291273  0.29198766  0.38802456    -0.18200
C364        C  0.35721008  0.26075243  0.37860782     0.04200
C365        C  0.37981520  0.22737186  0.37086203     0.18400
C366        C  0.42605852  0.22618336  0.37126138    -0.19600
C367        C  0.35621229  0.19515329  0.36295210    -0.20900
C368        C  0.31040026  0.19508496  0.36311864    -0.19400
C369        C  0.28709224  0.22747626  0.37020402     0.19800
C370        C  0.31000302  0.26108687  0.37710978     0.01900
C371        C  0.28455603  0.29342335  0.38181450    -0.14100
C372        C  0.23834232  0.29204611  0.38067442    -0.11900
C373        C  0.21628338  0.25841098  0.37566836     0.01400
C374        C  0.24083088  0.22635315  0.37028497    -0.24000
H375        H  0.44766610  0.31469430  0.39614236     0.09500
H376        H  0.36824493  0.31801575  0.39525410     0.13000
H377        H  0.44266181  0.20052771  0.36494510     0.11700
H378        H  0.37332597  0.16964293  0.35708517     0.12900
H379        H  0.29305145  0.16952381  0.35743376     0.12000
H380        H  0.29943920  0.32017368  0.38596192     0.09000
H381        H  0.21974737  0.31721859  0.38443427     0.12300
H382        H  0.22373514  0.20044023  0.36549920     0.14200
C383        C  0.71651779  0.24558896  0.37517232    -0.01300
C384        C  0.73793718  0.21149969  0.37301185    -0.09300
C385        C  0.78406639  0.20961338  0.37225016    -0.18200
C386        C  0.81022367  0.24205372  0.37288639     0.04200
C387        C  0.78807007  0.27656771  0.37343422     0.18400
C388        C  0.74181938  0.27798856  0.37538940    -0.19600
C389        C  0.81213190  0.30953621  0.37163980    -0.20900
C390        C  0.85788776  0.30905574  0.36920788    -0.19400
C391        C  0.88076694  0.27565527  0.36992705     0.19800
C392        C  0.85745071  0.24163345  0.37254829     0.01900
C393        C  0.88250599  0.20890199  0.37549873    -0.14100
C394        C  0.92874383  0.21007602  0.37546315    -0.11900
C395        C  0.95130259  0.24367691  0.37171572     0.01400
C396        C  0.92702568  0.27626135  0.36872351    -0.24000
H397        H  0.71893051  0.18610762  0.37240455     0.09500
H398        H  0.79828176  0.18247363  0.37051012     0.13000
H399        H  0.72537813  0.30449080  0.37624426     0.11700
H400        H  0.79540674  0.33590084  0.37168995     0.12900
H401        H  0.87556762  0.33506380  0.36743095     0.12000
H402        H  0.86732817  0.18216016  0.37872714     0.09000
H403        H  0.94690627  0.18456528  0.37812868     0.12300
H404        H  0.94427279  0.30245795  0.36653400     0.14200
C405        C  0.37570794  0.75121225  0.12563092    -0.01300
C406        C  0.35249340  0.71994473  0.11396116    -0.09300
C407        C  0.30649329  0.71909629  0.11421113    -0.18200
C408        C  0.28183941  0.74978477  0.12604971     0.04200
C409        C  0.30537052  0.78196875  0.13674632     0.18400
C410        C  0.35186732  0.78222588  0.13696528    -0.19600
C411        C  0.28231455  0.81375299  0.14680592    -0.20900
C412        C  0.23632595  0.81440492  0.14599688    -0.19400
C413        C  0.21223848  0.78288260  0.13633069     0.19800
C414        C  0.23470733  0.74980527  0.12715313     0.01900
C415        C  0.20902267  0.71795860  0.12007684    -0.14100
C416        C  0.16306416  0.71913364  0.12130769    -0.11900
C417        C  0.14114234  0.75207344  0.12883072     0.01400
C418        C  0.16576320  0.78397941  0.13620082    -0.24000
H419        H  0.36995998  0.69572975  0.10468590     0.09500
H420        H  0.29125721  0.69417771  0.10435078     0.13000
H421        H  0.36947180  0.80678601  0.14555725     0.11700
H422        H  0.29998915  0.83845685  0.15486210     0.12900
H423        H  0.21946885  0.83959809  0.15342278     0.12000
H424        H  0.22339851  0.69148537  0.11425059     0.09000
H425        H  0.14443776  0.69416731  0.11581021     0.12300
H426        H  0.14870357  0.80936296  0.14274131     0.14200
C427        C  0.64107001  0.74609600  0.12517960    -0.01300
C428        C  0.66280744  0.71373260  0.13484399    -0.09300
C429        C  0.70889405  0.71226714  0.13490863    -0.18200
C430        C  0.73459920  0.74315891  0.12443598     0.04200
C431        C  0.71198130  0.77546901  0.11338106     0.18400
C432        C  0.66567541  0.77686333  0.11450828    -0.19600
C433        C  0.73565927  0.80619063  0.10117744    -0.20900
C434        C  0.78153456  0.80586490  0.10028271    -0.19400
C435        C  0.80485765  0.77507637  0.11221287     0.19800
C436        C  0.78180725  0.74324400  0.12450869     0.01900
C437        C  0.80706438  0.71321053  0.13691186    -0.14100
C438        C  0.85313652  0.71495056  0.13741022    -0.11900
C439        C  0.87566728  0.74643257  0.12536121     0.01400
C440        C  0.85122598  0.77623321  0.11242358    -0.24000
H441        H  0.64400884  0.68961952  0.14292204     0.09500
H442        H  0.72330624  0.68650578  0.14292669     0.13000
H443        H  0.64861871  0.80168443  0.10635712     0.11700
H444        H  0.71856503  0.83068583  0.09228834     0.12900
H445        H  0.79892234  0.83014075  0.09074480     0.12000
H446        H  0.79227300  0.68821986  0.14696156     0.09000
H447        H  0.87117782  0.69143902  0.14741918     0.12300
H448        H  0.86827536  0.80075879  0.10305800     0.14200
O449        O  0.51051521  0.80270974  0.59653259    -0.74500
O450        O  0.50882483  0.74986599  0.68434288    -0.74500
O451        O  0.57277294  0.77506371  0.63982764    -0.74500
O452        O  0.44602068  0.77746010  0.64055671    -0.74600
O453        O  0.44472294  0.72433275  0.61057555    -0.74500
O454        O  0.57078313  0.72112812  0.61101769    -0.74500
O455        O  0.50664524  0.69653602  0.65468045    -0.74500
O456        O  0.50933790  0.74945023  0.56672429    -0.74500
Ni457      Ni  0.50951076  0.77816825  0.64142850     1.25400
Ni458      Ni  0.50769893  0.72100348  0.60964482     1.25400
C459        C  0.51087717  0.78478887  0.56711265     0.87700
C460        C  0.50818237  0.71454202  0.68405950     0.87600
C461        C  0.59247727  0.74758844  0.62538993     0.87700
C462        C  0.42445213  0.75117976  0.62556017     0.87800
O463        O  0.01041832  0.69782286  0.59876869    -0.74500
O464        O  0.00686004  0.75058196  0.68704184    -0.74500
O465        O  0.94548221  0.72269251  0.64182282    -0.74500
O466        O  0.07165551  0.72525463  0.64360094    -0.74600
O467        O  0.07160279  0.77920153  0.61505122    -0.74500
O468        O  0.94494725  0.77572793  0.61190793    -0.74500
O469        O  0.00587739  0.80375711  0.65733108    -0.74500
O470        O  0.01082943  0.75118391  0.56936247    -0.74500
Ni471      Ni  0.00858219  0.72223274  0.64393275     1.25400
Ni472      Ni  0.00824632  0.77937472  0.61235481     1.25400
C473        C  0.01134663  0.71586856  0.56946458     0.87700
C474        C  0.00628688  0.78591743  0.68672096     0.87600
C475        C  0.92432886  0.74851529  0.62622063     0.87700
C476        C  0.09239277  0.75245838  0.62951695     0.87800
O477        O  0.58634737  0.30454160  0.84917160    -0.74500
O478        O  0.58554854  0.25153613  0.93716319    -0.74500
O479        O  0.64926636  0.27553332  0.89151400    -0.74500
O480        O  0.52280308  0.28091945  0.89454740    -0.74600
O481        O  0.51884400  0.22791557  0.86449278    -0.74500
O482        O  0.64495570  0.22189842  0.86246496    -0.74500
O483        O  0.58077530  0.19852719  0.90718550    -0.74500
O484        O  0.58283891  0.25128766  0.81947711    -0.74500
Ni485      Ni  0.58620816  0.28003175  0.89422582     1.25400
Ni486      Ni  0.58171842  0.22305664  0.86234082     1.25400
C487        C  0.58449858  0.28657168  0.81976966     0.87700
C488        C  0.58270149  0.21624966  0.93667240     0.87600
C489        C  0.66791942  0.24786114  0.87649095     0.87700
C490        C  0.49993780  0.25528838  0.87980331     0.87800
O491        O  0.08884327  0.19783017  0.84480159    -0.74500
O492        O  0.08180040  0.25062854  0.93271878    -0.74500
O493        O  0.02226306  0.22039778  0.88742208    -0.74500
O494        O  0.14859129  0.22800867  0.88951271    -0.74600
O495        O  0.14553066  0.28186870  0.86096219    -0.74500
O496        O  0.01958854  0.27343275  0.85752779    -0.74500
O497        O  0.07791427  0.30378135  0.90318037    -0.74500
O498        O  0.08679309  0.25095783  0.81507281    -0.74500
Ni499      Ni  0.08557631  0.22235775  0.88972717     1.25400
Ni500      Ni  0.08240155  0.27938236  0.85808100     1.25400
C501        C  0.08851111  0.21562884  0.81538883     0.87700
C502        C  0.07811243  0.28581224  0.93254134     0.87600
C503        C  0.00010192  0.24586062  0.87213444     0.87700
C504        C  0.16779515  0.25607351  0.87551096     0.87800
O505        O  0.50950313  0.80332336  0.90488367    -0.74500
O506        O  0.51064486  0.75056129  0.81677758    -0.74500
O507        O  0.44673032  0.77962700  0.85884055    -0.74500
O508        O  0.57278180  0.77458680  0.86328877    -0.74600
O509        O  0.56850313  0.72108698  0.89241961    -0.74500
O510        O  0.44208473  0.72620632  0.88797285    -0.74500
O511        O  0.50625721  0.69733547  0.84627360    -0.74500
O512        O  0.50481727  0.75012714  0.93437958    -0.74500
Ni513      Ni  0.51000714  0.77887073  0.85983187     1.25400
Ni514      Ni  0.50509836  0.72178835  0.89132991     1.25400
C515        C  0.50807607  0.78537260  0.93420953     0.87700
C516        C  0.50914000  0.71525165  0.81698471     0.87600
C517        C  0.42355698  0.75362791  0.87261814     0.87700
C518        C  0.59138471  0.74747065  0.87900703     0.87800
O519        O  0.00962070  0.69944261  0.90704528    -0.74500
O520        O  0.00467870  0.75219456  0.81942547    -0.74500
O521        O  0.07032385  0.72713723  0.86131555    -0.74500
O522        O  0.94373098  0.72443570  0.86559465    -0.74600
O523        O  0.94432408  0.77790744  0.89507191    -0.74500
O524        O  0.07061112  0.78074642  0.89063307    -0.74500
O525        O  0.00514322  0.80555798  0.84906661    -0.74500
O526        O  0.01004605  0.75261526  0.93698468    -0.74500
Ni527      Ni  0.00703633  0.72393317  0.86225395     1.25400
Ni528      Ni  0.00746459  0.78108196  0.89406777     1.25400
C529        C  0.01057449  0.71725911  0.93650733     0.87700
C530        C  0.00502837  0.78751260  0.81968043     0.87600
C531        C  0.09125158  0.75452050  0.87498491     0.87700
C532        C  0.92317409  0.75076789  0.88120365     0.87800
C533        C  0.52676374  0.86252959  0.00078219     0.03100
C534        C  0.52321232  0.84313720  0.53304452    -0.13100
C535        C  0.51382680  0.80516237  0.53320057     0.00600
C536        C  0.50835642  0.78653923  0.50072413    -0.11600
C537        C  0.51167479  0.80552945  0.96825837     0.03100
C538        C  0.52113935  0.84345500  0.96851737    -0.11000
H539        H  0.52712094  0.85780979  0.55803824     0.08700
H540        H  0.50125648  0.75722669  0.50069458     0.06200
H541        H  0.52524679  0.85805318  0.94354124     0.06100
C542        C  0.57609258  0.13703743  0.00217864     0.03100
C543        C  0.57813433  0.15693866  0.97019567    -0.13100
C544        C  0.58128277  0.19555963  0.97048091     0.00600
C545        C  0.58258339  0.21423908  0.00320078    -0.11600
C546        C  0.58051152  0.19464447  0.53541346     0.03100
C547        C  0.57699365  0.15604605  0.53468547    -0.11000
H548        H  0.57757825  0.14219642  0.94504068     0.08700
H549        H  0.58488952  0.24405795  0.00353978     0.06200
H550        H  0.57477845  0.14079189  0.55944214     0.06100
C551        C  0.57682524  0.36429853  0.75294103     0.03100
C552        C  0.57972471  0.34522705  0.78530306    -0.13100
C553        C  0.58357954  0.30670799  0.78568901     0.00600
C554        C  0.58499138  0.28733373  0.75327737    -0.11600
C555        C  0.58242201  0.30604935  0.72069409     0.03100
C556        C  0.57840286  0.34459052  0.72074528    -0.11000
H557        H  0.57766054  0.36038163  0.81018600     0.08700
H558        H  0.58792368  0.25757330  0.75340294     0.06200
H559        H  0.57639517  0.35938874  0.69573748     0.06100
C560        C  0.52380187  0.63748810  0.75070493     0.03100
C561        C  0.51873887  0.65631801  0.71836787    -0.13100
C562        C  0.51051979  0.69437190  0.71807671     0.00600
C563        C  0.50693847  0.71343639  0.75053175    -0.11600
C564        C  0.51152117  0.69486372  0.78303249     0.03100
C565        C  0.51984109  0.65686788  0.78291411    -0.11000
H566        H  0.52263589  0.64147805  0.69345047     0.08700
H567        H  0.50076512  0.74284117  0.75050787     0.06200
H568        H  0.52348065  0.64227502  0.80790914     0.06100
C569        C  0.01899365  0.86441981  0.75242462     0.03100
C570        C  0.01510941  0.84471721  0.72041850    -0.13100
C571        C  0.00739136  0.80657353  0.72058832     0.00600
C572        C  0.00300919  0.78820395  0.75324339    -0.11600
C573        C  0.00681696  0.80755595  0.78555641     0.03100
C574        C  0.01486168  0.84572860  0.78494736    -0.11000
H575        H  0.01935748  0.85910669  0.69533061     0.08700
H576        H  0.99723203  0.75869652  0.75348670     0.06200
H577        H  0.01800617  0.86097493  0.80970026     0.06100
C578        C  0.07927182  0.13703165  0.74919683     0.03100
C579        C  0.08332059  0.15646173  0.78137792    -0.13100
C580        C  0.08862512  0.19497699  0.78143289     0.00600
C581        C  0.09081250  0.21381610  0.74883712    -0.11600
C582        C  0.08707494  0.19465023  0.71643786     0.03100
C583        C  0.08162565  0.15624359  0.71685986    -0.11000
H584        H  0.08032944  0.14168421  0.80636100     0.08700
H585        H  0.09451879  0.24354474  0.74870614     0.06200
H586        H  0.07842985  0.14119629  0.69199777     0.06100
C587        C  0.06108068  0.36297663  0.99964637     0.03100
C588        C  0.06526420  0.34384691  0.96720918    -0.13100
C589        C  0.07379931  0.30582898  0.96670471     0.00600
C590        C  0.07766523  0.28683054  0.99907304    -0.11600
C591        C  0.07383735  0.30529638  0.53153181     0.03100
C592        C  0.06583159  0.34342860  0.53166750    -0.11000
H593        H  0.06110889  0.35849697  0.94231526     0.08700
H594        H  0.08406456  0.25746508  0.99887447     0.06200
H595        H  0.06349325  0.35807928  0.55679965     0.06100
C596        C  0.01645304  0.63796902  0.00194990     0.03100
C597        C  0.01560681  0.65714960  0.53455826    -0.13100
C598        C  0.01284056  0.69577827  0.53525906     0.00600
C599        C  0.01131959  0.71525192  0.00302392    -0.11600
C600        C  0.01224817  0.69657312  0.97029986     0.03100
C601        C  0.01458674  0.65792328  0.96998777    -0.11000
H602        H  0.01769074  0.64198987  0.55934602     0.08700
H603        H  0.00927036  0.74506676  0.00339451     0.06200
H604        H  0.01461984  0.64322321  0.94481151     0.06100
O605        O  0.58297662  0.25004490  0.56944781    -0.74500
O606        O  0.58478658  0.30307749  0.65731487    -0.74500
O607        O  0.64719258  0.27460287  0.61348746    -0.74500
O608        O  0.52077667  0.27827455  0.61340195    -0.74600
O609        O  0.51805344  0.22452087  0.64215868    -0.74500
O610        O  0.64447910  0.22189008  0.64387732    -0.74500
O611        O  0.58126576  0.25003575  0.68714479    -0.74500
O612        O  0.58116204  0.19679894  0.59901583    -0.74500
Ni613      Ni  0.58406377  0.27837899  0.61235830     1.25400
Ni614      Ni  0.58117308  0.22142856  0.64416103     1.25400
C615        C  0.58167009  0.21474901  0.56963484     0.87700
C616        C  0.58297288  0.28536619  0.68676275     0.87600
C617        C  0.66674834  0.24765826  0.62875662     0.87700
C618        C  0.49859782  0.25180055  0.62743742     0.87800
O619        O  0.01904926  0.27461673  0.64058481    -0.74500
O620        O  0.14540564  0.27814643  0.63639832    -0.74500
O621        O  0.07897943  0.30274714  0.59480287    -0.74500
O622        O  0.08533152  0.25013050  0.68260919    -0.74600
O623        O  0.08582698  0.19677123  0.65296436    -0.74500
O624        O  0.07963426  0.24950692  0.56497678    -0.74500
O625        O  0.14604927  0.22459328  0.60703772    -0.74500
O626        O  0.01968992  0.22090841  0.61131898    -0.74500
Ni627      Ni  0.08223105  0.27828632  0.63967945     1.25400
Ni628      Ni  0.08286003  0.22107038  0.60793065     1.25400
C629        C  0.99871894  0.24714438  0.62661221     0.87700
C630        C  0.16657043  0.25180044  0.62134279     0.87600
C631        C  0.07781956  0.28484446  0.56538371     0.87700
C632        C  0.08633170  0.21482608  0.68235195     0.87800
C633        C  0.21533441  0.25270585  0.62095535    -0.01300
C634        C  0.23781006  0.28634711  0.62411108    -0.09300
C635        C  0.28385007  0.28760438  0.62473568    -0.18200
C636        C  0.30909247  0.25494054  0.62276155     0.04200
C637        C  0.28605751  0.22074584  0.62023213     0.18400
C638        C  0.23966525  0.21997822  0.61874560    -0.19600
C639        C  0.30942599  0.18752672  0.61973482    -0.20900
C640        C  0.35528096  0.18748656  0.62203041    -0.19400
C641        C  0.37894409  0.22069482  0.62401328     0.19800
C642        C  0.35625994  0.25494988  0.62373803     0.01900
C643        C  0.38183928  0.28771623  0.62412929    -0.14100
C644        C  0.42786416  0.28646959  0.62516328    -0.11900
C645        C  0.44991513  0.25270448  0.62642110     0.01400
C646        C  0.42528001  0.21988433  0.62595956    -0.24000
H647        H  0.21965858  0.31195841  0.62598816     0.09500
H648        H  0.29859157  0.31455984  0.62746956     0.13000
H649        H  0.22241528  0.19375378  0.61686779     0.11700
H650        H  0.29208053  0.16135885  0.61798771     0.12900
H651        H  0.37238550  0.16129281  0.62197680     0.12000
H652        H  0.36738215  0.31477696  0.62311192     0.09000
H653        H  0.44632722  0.31214856  0.62534426     0.12300
H654        H  0.44228299  0.19362480  0.62631518     0.14200
C655        C  0.95036231  0.24595710  0.62768907    -0.01300
C656        C  0.92835297  0.21797319  0.64623960    -0.09300
C657        C  0.88220941  0.21692414  0.64739895    -0.18200
C658        C  0.85679471  0.24360344  0.62921013     0.04200
C659        C  0.87976966  0.27124749  0.60950458     0.18400
C660        C  0.92610751  0.27254563  0.60948408    -0.19600
C661        C  0.85642192  0.29729474  0.58971960    -0.20900
C662        C  0.81054627  0.29679651  0.58926944    -0.19400
C663        C  0.78687847  0.27067914  0.60914137     0.19800
C664        C  0.80956161  0.24377651  0.62956857     0.01900
C665        C  0.78390419  0.21852283  0.64966631    -0.14100
C666        C  0.73779326  0.21982306  0.64924982    -0.11900
C667        C  0.71564370  0.24628105  0.62892182     0.01400
C668        C  0.74052109  0.27156438  0.60887560    -0.24000
H669        H  0.94698941  0.19710434  0.66023402     0.09500
H670        H  0.86746781  0.19465907  0.66235541     0.13000
H671        H  0.94348021  0.29386388  0.59467810     0.11700
H672        H  0.87378729  0.31814672  0.57436128     0.12900
H673        H  0.79343065  0.31728944  0.57357237     0.12000
H674        H  0.79844599  0.19767524  0.66630412     0.09000
H675        H  0.71941538  0.20009914  0.66518282     0.12300
H676        H  0.72378829  0.29216425  0.59301522     0.14200
C677        C  0.02010525  0.59721209  0.00128557    -0.01300
C678        C  0.99682244  0.57555070  0.52592936    -0.09300
C679        C  0.00117233  0.53726466  0.52610065    -0.18200
C680        C  0.02906205  0.51927707  0.00136250     0.04200
C681        C  0.05239551  0.54137998  0.97622077     0.18400
C682        C  0.04780577  0.57983016  0.97645669    -0.19600
C683        C  0.08064798  0.52506966  0.95121904    -0.20900
C684        C  0.08688290  0.48717229  0.95095695    -0.19400
C685        C  0.06506790  0.46468189  0.97572578     0.19800
C686        C  0.03558799  0.48029037  0.00116353     0.01900
C687        C  0.01500271  0.45619351  0.52583854    -0.14100
C688        C  0.02306089  0.41834272  0.52504341    -0.11900
C689        C  0.05205123  0.40319249  0.99993732     0.01400
C690        C  0.07300511  0.42660953  0.97538202    -0.24000
H691        H  0.97467147  0.58827384  0.54502955     0.09500
H692        H  0.98204573  0.52263170  0.54583838     0.13000
H693        H  0.06671718  0.59635754  0.95771631     0.11700
H694        H  0.09832929  0.54178164  0.93187987     0.12900
H695        H  0.10923449  0.47539572  0.93141021     0.12000
H696        H  0.99230386  0.46568217  0.54601029     0.09000
H697        H  0.00599862  0.40082490  0.54403379     0.12300
H698        H  0.09632126  0.41527158  0.95632283     0.14200
C699        C  0.02736051  0.90455550  0.75156978    -0.01300
C700        C  0.00277918  0.92686490  0.72875154    -0.09300
C701        C  0.01019842  0.96472531  0.72738069    -0.18200
C702        C  0.04277525  0.98162517  0.74895555     0.04200
C703        C  0.06801071  0.95874762  0.77186347     0.18400
C704        C  0.06003628  0.92060012  0.77303697    -0.19600
C705        C  0.10098071  0.97407577  0.79346114    -0.20900
C706        C  0.10924941  0.01181086  0.79304658    -0.19400
C707        C  0.08473770  0.03509088  0.77103145     0.19800
C708        C  0.05116276  0.02034911  0.74861661     0.01900
C709        C  0.02732377  0.04505942  0.72691945    -0.14100
C710        C  0.03666973  0.08266665  0.72730779    -0.11900
C711        C  0.06989962  0.09699779  0.74924584     0.01400
C712        C  0.09366333  0.07311222  0.77123229    -0.24000
H713        H  0.97720735  0.91496202  0.71209583     0.09500
H714        H  0.98977096  0.97986043  0.70916586     0.13000
H715        H  0.07960194  0.90327145  0.79037197     0.11700
H716        H  0.12043962  0.95676972  0.81086726     0.12900
H717        H  0.13493709  0.02287752  0.81012684     0.12000
H718        H  0.00114598  0.03637342  0.70941121     0.09000
H719        H  0.01735118  0.10077027  0.71058961     0.12300
H720        H  0.11955932  0.08411890  0.78816778     0.14200
C721        C  0.57090523  0.40471283  0.75282224    -0.01300
C722        C  0.59648683  0.42724601  0.77505052    -0.09300
C723        C  0.59072443  0.46536230  0.77530214    -0.18200
C724        C  0.55883226  0.48217964  0.75323499     0.04200
C725        C  0.53297528  0.45904270  0.73073278     0.18400
C726        C  0.53920906  0.42079061  0.73074522    -0.19600
C727        C  0.50092787  0.47414742  0.70838893    -0.20900
C728        C  0.49389881  0.51192294  0.70782282    -0.19400
C729        C  0.51862120  0.53544439  0.72970218     0.19800
C730        C  0.55147905  0.52100364  0.75275857     0.01900
C731        C  0.57527437  0.54607521  0.77444950    -0.14100
C732        C  0.56637567  0.58373239  0.77351714    -0.11900
C733        C  0.53376457  0.59765239  0.75092916     0.01400
C734        C  0.51028014  0.57339956  0.72888637    -0.24000
H735        H  0.62143133  0.41532314  0.79210546     0.09500
H736        H  0.61178647  0.48079882  0.79303829     0.13000
H737        H  0.51886196  0.40336184  0.71385820     0.11700
H738        H  0.48113245  0.45660745  0.69121652     0.12900
H739        H  0.46880179  0.52280889  0.69024473     0.12000
H740        H  0.60081541  0.53754761  0.79252490     0.09000
H741        H  0.58533964  0.60214421  0.79042474     0.12300
H742        H  0.48471283  0.58405182  0.71158927     0.14200
C743        C  0.53681082  0.90259052  0.00070866    -0.01300
C744        C  0.56840039  0.91747047  0.52421720    -0.09300
C745        C  0.57676962  0.95529394  0.02481077    -0.18200
C746        C  0.55469402  0.97954141  0.00142771     0.04200
C747        C  0.52368780  0.96412228  0.97712605     0.18400
C748        C  0.51511382  0.92610741  0.97699416    -0.19600
C749        C  0.50091041  0.98674830  0.95335443    -0.20900
C750        C  0.50767196  0.02462865  0.95354178    -0.19400
C751        C  0.53743331  0.04076241  0.97746149     0.19800
C752        C  0.56173487  0.01850410  0.00156136     0.01900
C753        C  0.59154975  0.03632734  0.02500088    -0.14100
C754        C  0.59607234  0.07462469  0.52458977    -0.11900
C755        C  0.57172834  0.09636166  0.00152654     0.01400
C756        C  0.54260859  0.07919183  0.97767159    -0.24000
H757        H  0.58635790  0.89983350  0.54232380     0.09500
H758        H  0.60128661  0.96469190  0.54360814     0.13000
H759        H  0.49065459  0.91488874  0.95884785     0.11700
H760        H  0.47737666  0.97509495  0.93468682     0.12900
H761        H  0.48921744  0.04146372  0.93502006     0.12000
H762        H  0.61203475  0.02162636  0.54316923     0.09000
H763        H  0.61955485  0.08734897  0.54261677     0.12300
H764        H  0.52313101  0.09588485  0.95970226     0.14200
C765        C  0.13988004  0.75579131  0.87273719    -0.01300
C766        C  0.16227151  0.78955405  0.86996894    -0.09300
C767        C  0.20840576  0.79077947  0.86801189    -0.18200
C768        C  0.23365598  0.75806924  0.86963636     0.04200
C769        C  0.21050816  0.72397146  0.87290505     0.18400
C770        C  0.16416709  0.72312069  0.87373584    -0.19600
C771        C  0.23369090  0.69088372  0.87599248    -0.20900
C772        C  0.27954069  0.69085693  0.87660546    -0.19400
C773        C  0.30336948  0.72383295  0.87336206     0.19800
C774        C  0.28092062  0.75788699  0.86900294     0.01900
C775        C  0.30686355  0.79012490  0.86434841    -0.14100
C776        C  0.35302710  0.78861324  0.86502742    -0.11900
C777        C  0.37478514  0.75512868  0.87073915     0.01400
C778        C  0.34966941  0.72284957  0.87461066    -0.24000
H779        H  0.14396587  0.81513198  0.86898826     0.09500
H780        H  0.22333389  0.81774757  0.86596182     0.13000
H781        H  0.14690967  0.69695305  0.87624999     0.11700
H782        H  0.21620845  0.66485412  0.87857267     0.12900
H783        H  0.29650866  0.66480468  0.87964727     0.12000
H784        H  0.29248648  0.81686323  0.85996399     0.09000
H785        H  0.37176041  0.81390811  0.86164062     0.12300
H786        H  0.36625274  0.69670414  0.87835973     0.14200
C787        C  0.63986400  0.74759400  0.88230685    -0.01300
C788        C  0.66201094  0.78128332  0.88603614    -0.09300
C789        C  0.70785761  0.78271560  0.88812295    -0.18200
C790        C  0.73342986  0.75028955  0.88576946     0.04200
C791        C  0.71076587  0.71596430  0.88241632     0.18400
C792        C  0.66426750  0.71485977  0.88130292    -0.19600
C793        C  0.73471494  0.68314908  0.87943405    -0.20900
C794        C  0.78072744  0.68375716  0.87883424    -0.19400
C795        C  0.80394679  0.71715266  0.88161943     0.19800
C796        C  0.78060051  0.75083790  0.88580626     0.01900
C797        C  0.80553846  0.78370734  0.88941004    -0.14100
C798        C  0.85150939  0.78327284  0.88821552    -0.11900
C799        C  0.87439432  0.75025190  0.88311407     0.01400
C800        C  0.85042056  0.71718453  0.87999473    -0.24000
H801        H  0.64363902  0.80682257  0.88745577     0.09500
H802        H  0.72218770  0.80984406  0.89089525     0.13000
H803        H  0.64713497  0.68867584  0.87841882     0.11700
H804        H  0.71773612  0.65688001  0.87694306     0.12900
H805        H  0.79828283  0.65793384  0.87593664     0.12000
H806        H  0.79063177  0.81037654  0.89320116     0.09000
H807        H  0.86927011  0.80915365  0.89076781     0.12300
H808        H  0.86796124  0.69140400  0.87652167     0.14200
C809        C  0.45108686  0.25710138  0.88015646    -0.01300
C810        C  0.42903393  0.28940287  0.89029648    -0.09300
C811        C  0.38286758  0.29118007  0.88941488    -0.18200
C812        C  0.35723867  0.26038648  0.87862813     0.04200
C813        C  0.37989977  0.22740620  0.86950057     0.18400
C814        C  0.42615150  0.22623312  0.86994169    -0.19600
C815        C  0.35633754  0.19556858  0.86017640    -0.20900
C816        C  0.31051347  0.19546164  0.86031488    -0.19400
C817        C  0.28715742  0.22748425  0.86877935     0.19800
C818        C  0.31004217  0.26076686  0.87708857     0.01900
C819        C  0.28458727  0.29286972  0.88309822    -0.14100
C820        C  0.23838876  0.29153641  0.88191648    -0.11900
C821        C  0.21635187  0.25814548  0.87558433     0.01400
C822        C  0.24088260  0.22634251  0.86886089    -0.24000
H823        H  0.44752990  0.31356905  0.89859343     0.09500
H824        H  0.36815174  0.31683303  0.89775806     0.13000
H825        H  0.44279429  0.20090118  0.86255164     0.11700
H826        H  0.37349010  0.17036215  0.85323320     0.12900
H827        H  0.29319623  0.17017376  0.85353595     0.12000
H828        H  0.29944731  0.31942536  0.88831485     0.09000
H829        H  0.21977695  0.31651885  0.88670716     0.12300
H830        H  0.22376494  0.20066656  0.86304639     0.14200
C831        C  0.71659036  0.24598282  0.87511992    -0.01300
C832        C  0.73804150  0.21188934  0.87342035    -0.09300
C833        C  0.78415787  0.21002997  0.87263734    -0.18200
C834        C  0.81027692  0.24249434  0.87279360     0.04200
C835        C  0.78809526  0.27699850  0.87283630     0.18400
C836        C  0.74183806  0.27841286  0.87482381    -0.19600
C837        C  0.81214195  0.30994338  0.87052778    -0.20900
C838        C  0.85790885  0.30944200  0.86813702    -0.19400
C839        C  0.88080951  0.27606753  0.86940754     0.19800
C840        C  0.85749720  0.24208710  0.87249109     0.01900
C841        C  0.88254246  0.20940923  0.87594594    -0.14100
C842        C  0.92876769  0.21058386  0.87598723    -0.11900
C843        C  0.95134606  0.24412267  0.87184129     0.01400
C844        C  0.92707947  0.27666135  0.86831200    -0.24000
H845        H  0.71906436  0.18647437  0.87320400     0.09500
H846        H  0.79838522  0.18287566  0.87127280     0.13000
H847        H  0.72535122  0.30490347  0.87530726     0.11700
H848        H  0.79540040  0.33629602  0.87016933     0.12900
H849        H  0.87557935  0.33542341  0.86598220     0.12000
H850        H  0.86737187  0.18271487  0.87952520     0.09000
H851        H  0.94690618  0.18510978  0.87904273     0.12300
H852        H  0.94433041  0.30282152  0.86577599     0.14200
C853        C  0.37552651  0.75134916  0.62557176    -0.01300
C854        C  0.35228508  0.72005896  0.61399537    -0.09300
C855        C  0.30628334  0.71921307  0.61431384    -0.18200
C856        C  0.28166029  0.74992787  0.62612528     0.04200
C857        C  0.30520416  0.78218244  0.63659300     0.18400
C858        C  0.35170555  0.78243293  0.63676913    -0.19600
C859        C  0.28215064  0.81403018  0.64647452    -0.20900
C860        C  0.23615422  0.81466186  0.64571040    -0.19400
C861        C  0.21206294  0.78304554  0.63633167     0.19800
C862        C  0.23453727  0.74990707  0.62739132     0.01900
C863        C  0.20887770  0.71795234  0.62073101    -0.14100
C864        C  0.16291851  0.71910417  0.62200897    -0.11900
C865        C  0.14097345  0.75211871  0.62917336     0.01400
C866        C  0.16558428  0.78411117  0.63623773    -0.24000
H867        H  0.36973173  0.69581349  0.60477100     0.09500
H868        H  0.29100744  0.69428390  0.60451753     0.13000
H869        H  0.36932718  0.80703143  0.64523379     0.11700
H870        H  0.29983045  0.83879794  0.65433750     0.12900
H871        H  0.21929662  0.83990691  0.65296566     0.12000
H872        H  0.22328867  0.69142408  0.61520855     0.09000
H873        H  0.14431392  0.69406330  0.61678775     0.12300
H874        H  0.14851695  0.80955466  0.64253539     0.14200
C875        C  0.64090873  0.74631632  0.62511658    -0.01300
C876        C  0.66271540  0.71390875  0.63451551    -0.09300
C877        C  0.70879407  0.71246007  0.63441021    -0.18200
C878        C  0.73443600  0.74342625  0.62404038     0.04200
C879        C  0.71175685  0.77583087  0.61333431     0.18400
C880        C  0.66544581  0.77718656  0.61459435    -0.19600
C881        C  0.73538299  0.80668644  0.60137080    -0.20900
C882        C  0.78126724  0.80640813  0.60042249    -0.19400
C883        C  0.80465141  0.77549799  0.61198876     0.19800
C884        C  0.78164314  0.74350372  0.62394360     0.01900
C885        C  0.80693967  0.71328327  0.63585350    -0.14100
C886        C  0.85299792  0.71504224  0.63635479    -0.11900
C887        C  0.87549848  0.74672500  0.62478712     0.01400
C888        C  0.85103384  0.77668237  0.61220144    -0.24000
H889        H  0.64397708  0.68973224  0.64250778     0.09500
H890        H  0.72323468  0.68665847  0.64225590     0.13000
H891        H  0.64833467  0.80206060  0.60667207     0.11700
H892        H  0.71824355  0.83126403  0.59275365     0.12900
H893        H  0.79861248  0.83080401  0.59112491     0.12000
H894        H  0.79220559  0.68810857  0.64550679     0.09000
H895        H  0.87105711  0.69138052  0.64600890     0.12300
H896        H  0.86806908  0.80134537  0.60316337     0.14200
loop_ 
_geom_bond_atom_site_label_1 
_geom_bond_atom_site_label_2 
_geom_bond_distance 
_geom_bond_site_symmetry_2 
_ccdc_geom_bond_type 
O1           Ni9   1.906       .  S
O1           C11   1.279       .  A
O2           Ni9   1.910       .  S
O2           C12   1.281       .  A
O3           Ni9   1.919       .  S
O3           C13   1.282       .  A
O4           Ni9   1.922       .  S
O4           C14   1.282       .  A
O5          Ni10   1.910       .  S
O5           C14   1.281       .  A
O6          Ni10   1.910       .  S
O6           C13   1.279       .  A
O7          Ni10   1.910       .  S
O7           C12   1.280       .  A
O8          Ni10   1.915       .  S
O8           C11   1.282       .  A
Ni9         Ni10   2.389       .  S
C11          C87   1.474       .  S
C12         C114   1.474       .  S
C13         C427   1.466       .  S
C14         C405   1.480       .  S
O15         Ni23   1.911       .  S
O15          C25   1.281       .  A
O16         Ni23   1.915       .  S
O16          C26   1.282       .  A
O17         Ni23   1.911   1_655  S
O17          C27   1.281       .  A
O18         Ni23   1.911       .  S
O18          C28   1.280       .  A
O19         Ni24   1.920       .  S
O19          C28   1.281       .  A
O20         Ni24   1.919   1_655  S
O20          C27   1.282       .  A
O21         Ni24   1.903       .  S
O21          C26   1.279       .  A
O22         Ni24   1.908       .  S
O22          C25   1.281       .  A
Ni23        Ni24   2.389       .  S
C25         C150   1.474       .  S
C26         C123   1.473       .  S
C27         C439   1.480       .  S
C28         C417   1.470       .  S
O29         Ni37   1.911       .  S
O29          C39   1.281       .  A
O30         Ni37   1.915       .  S
O30          C40   1.282       .  A
O31         Ni37   1.918       .  S
O31          C41   1.282       .  A
O32         Ni37   1.919       .  S
O32          C42   1.281       .  A
O33         Ni38   1.913       .  S
O33          C42   1.282       .  A
O34         Ni38   1.915       .  S
O34          C41   1.281       .  A
O35         Ni38   1.904       .  S
O35          C40   1.279       .  A
O36         Ni38   1.908       .  S
O36          C39   1.280       .  A
Ni37        Ni38   2.388       .  S
C39         C105   1.474       .  S
C40          C96   1.475       .  S
C41         C383   1.476       .  S
C42         C361   1.479       .  S
O43         Ni51   1.905       .  S
O43          C53   1.279       .  A
O44         Ni51   1.911       .  S
O44          C54   1.281       .  A
O45         Ni51   1.919       .  S
O45          C55   1.281       .  A
O46         Ni51   1.916       .  S
O46          C56   1.282       .  A
O47         Ni52   1.916       .  S
O47          C56   1.280       .  A
O48         Ni52   1.912       .  S
O48          C55   1.281       .  A
O49         Ni52   1.911       .  S
O49          C54   1.281       .  A
O50         Ni52   1.916       .  S
O50          C53   1.282       .  A
Ni51        Ni52   2.389       .  S
C53         C132   1.475       .  S
C54         C141   1.476       .  S
C55         C395   1.476   1_455  S
C56         C373   1.472       .  S
O57         Ni65   1.906       .  S
O57          C67   1.280       .  A
O58         Ni65   1.911       .  S
O58          C68   1.281       .  A
O59         Ni65   1.916       .  S
O59          C69   1.281       .  A
O60         Ni65   1.911       .  S
O60          C70   1.281       .  A
O61         Ni66   1.920       .  S
O61          C70   1.281       .  A
O62         Ni66   1.919       .  S
O62          C69   1.283       .  A
O63         Ni66   1.906       .  S
O63          C68   1.280       .  A
O64         Ni66   1.912       .  S
O64          C67   1.281       .  A
Ni65        Ni66   2.389       .  S
C67          C89   1.474       .  S
C68         C116   1.472       .  S
C69         C329   1.479       .  S
C70         C339   1.472       .  S
O71         Ni79   1.903       .  S
O71          C81   1.279       .  A
O72         Ni79   1.908       .  S
O72          C82   1.280       .  A
O73         Ni79   1.918       .  S
O73          C83   1.282       .  A
O74         Ni79   1.920   1_655  S
O74          C84   1.281       .  A
O75         Ni80   1.913   1_655  S
O75          C84   1.281       .  A
O76         Ni80   1.915       .  S
O76          C83   1.280       .  A
O77         Ni80   1.910       .  S
O77          C82   1.280       .  A
O78         Ni80   1.916       .  S
O78          C81   1.282       .  A
Ni79        Ni80   2.389       .  S
C81         C152   1.475       .  S
C82         C125   1.473       .  S
C83         C317   1.475       .  S
C84         C351   1.478       .  S
C85         C295   1.482       .  S
C85          C90   1.402       .  A
C85         C534   1.403       .  A
C86          C87   1.405       .  A
C86         C533   1.404       .  A
C86          H91   1.083       .  S
C87          C88   1.401       .  A
C88         C537   1.401   1_554  A
C88          H92   1.083       .  S
C89          C90   1.403       .  A
C89         C536   1.401       .  A
C90          H93   1.083       .  S
C94         C307   1.480       .  S
C94          C95   1.402       .  A
C94         C547   1.403       .  A
C95          C96   1.403       .  A
C95         H100   1.083       .  S
C96          C97   1.401       .  A
C97         C546   1.403       .  A
C97         H101   1.083       .  S
C98         C167   1.475       .  S
C98          C99   1.403       .  A
C98         C545   1.403       .  A
C99         C542   1.403       .  A
C99         H102   1.083       .  S
C103        C273   1.478       .  S
C103        C104   1.402       .  A
C103        C108   1.402       .  A
C104        C105   1.402       .  A
C104        H109   1.084       .  S
C105        C106   1.403       .  A
C106        C107   1.401       .  A
C106        H110   1.083       .  S
C107        C168   1.475       .  S
C107        C108   1.403       .  A
C108        H111   1.083       .  S
C112        C285   1.477       .  S
C112        C113   1.402       .  A
C112        C117   1.401       .  A
C113        C114   1.403       .  A
C113        H118   1.084       .  S
C114        C115   1.403       .  A
C115        C116   1.401       .  A
C115        H119   1.083       .  S
C116        C117   1.402       .  A
C117        H120   1.084       .  S
C121        C251   1.476       .  S
C121        C122   1.400       .  A
C121        C126   1.401       .  A
C122        C123   1.402       .  A
C122        H127   1.084       .  S
C123        C124   1.401       .  A
C124        C125   1.404       .  A
C124        H128   1.083   1_455  S
C125        C126   1.404       .  A
C126        H129   1.084       .  S
C130        C263   1.478       .  S
C130        C131   1.402       .  A
C130        C135   1.401       .  A
C131        C132   1.405       .  A
C131        H136   1.083       .  S
C132        C133   1.402       .  A
C133        C134   1.402       .  A
C133        H137   1.083       .  S
C134        C184   1.474       .  S
C134        C135   1.402       .  A
C135        H138   1.084       .  S
C139        C241   1.485       .  S
C139        C140   1.405       .  A
C139        C592   1.405       .  A
C140        C141   1.404       .  A
C140        H145   1.083       .  S
C141        C142   1.402       .  A
C142        C591   1.401       .  A
C142        H146   1.083       .  S
C143        C183   1.477       .  S
C143        C144   1.405       .  A
C143        C590   1.401   1_554  A
C144        C587   1.405   1_554  A
C144        H147   1.083       .  S
C148        C229   1.483       .  S
C148        C153   1.403       .  A
C148        C597   1.404       .  A
C149        C150   1.404       .  A
C149        C596   1.403       .  A
C149        H154   1.083       .  S
C150        C599   1.403       .  A
C151        C152   1.400       .  A
C151        C598   1.402       .  A
C151        H155   1.083       .  S
C152        C153   1.404       .  A
C153        H156   1.083       .  S
O157       Ni165   1.908       .  S
O157        C167   1.280       .  A
O158       Ni165   1.907       .  S
O158        C168   1.279       .  A
O159       Ni165   1.916       .  S
O159        C169   1.282       .  A
O160       Ni165   1.915       .  S
O160        C170   1.281       .  A
O161       Ni166   1.916       .  S
O161        C170   1.281       .  A
O162       Ni166   1.916       .  S
O162        C169   1.281       .  A
O163       Ni166   1.914       .  S
O163        C168   1.282       .  A
O164       Ni166   1.912       .  S
O164        C167   1.281       .  A
Ni165      Ni166   2.388       .  S
C169        C219   1.481       .  S
C170        C197   1.474       .  S
O171       Ni179   1.915       .  S
O171        C181   1.280   1_455  A
O172       Ni179   1.914       .  S
O172        C182   1.281       .  A
O173       Ni179   1.908       .  S
O173        C183   1.280       .  A
O174       Ni179   1.912       .  S
O174        C184   1.281       .  A
O175       Ni180   1.908       .  S
O175        C184   1.280       .  A
O176       Ni180   1.917       .  S
O176        C183   1.283       .  A
O177       Ni180   1.917       .  S
O177        C182   1.281       .  A
O178       Ni180   1.916       .  S
O178        C181   1.280   1_455  A
Ni179      Ni180   2.390       .  S
C181        C207   1.464       .  S
C182        C185   1.475       .  S
C185        C186   1.399       .  A
C185        C190   1.402       .  A
C186        C187   1.394       .  A
C186        H199   1.083       .  S
C187        C188   1.414       .  A
C187        H200   1.077       .  S
C188        C194   1.428       .  A
C188        C189   1.423       .  A
C189        C191   1.400       .  A
C189        C190   1.405       .  A
C190        H201   1.085       .  S
C191        C192   1.391       .  A
C191        H202   1.084       .  S
C192        C193   1.400       .  A
C192        H203   1.084       .  S
C193        C194   1.422       .  A
C193        C198   1.405       .  A
C194        C195   1.415       .  A
C195        C196   1.394       .  A
C195        H204   1.077       .  S
C196        C197   1.398       .  A
C196        H205   1.083       .  S
C197        C198   1.401       .  A
C198        H206   1.085       .  S
C207        C208   1.397       .  A
C207        C212   1.396       .  A
C208        C209   1.397       .  A
C208        H221   1.084       .  S
C209        C210   1.417       .  A
C209        H222   1.078       .  S
C210        C216   1.429       .  A
C210        C211   1.424       .  A
C211        C213   1.398       .  A
C211        C212   1.403       .  A
C212        H223   1.085       .  S
C213        C214   1.388       .  A
C213        H224   1.084       .  S
C214        C215   1.399       .  A
C214        H225   1.084       .  S
C215        C216   1.422       .  A
C215        C220   1.403       .  A
C216        C217   1.414       .  A
C217        C218   1.397       .  A
C217        H226   1.078       .  S
C218        C219   1.402       .  A
C218        H227   1.083       .  S
C219        C220   1.401       .  A
C220        H228   1.084       .  S
C229        C234   1.401       .  A
C229        C678   1.400   1_455  A
C230        C231   1.395   1_655  A
C230        C677   1.400   1_655  A
C230        H243   1.083       .  S
C231        C680   1.415       .  A
C231        H244   1.077   1_455  S
C232        C238   1.428       .  A
C232        C233   1.422       .  A
C232        C679   1.415       .  A
C233        C235   1.399       .  A
C233        C234   1.402       .  A
C234        H245   1.084       .  S
C235        C236   1.388       .  A
C235        H246   1.084       .  S
C236        C237   1.399       .  A
C236        H247   1.084       .  S
C237        C238   1.422       .  A
C237        C242   1.403       .  A
C238        C687   1.414       .  A
C239        C240   1.395       .  A
C239        C686   1.415       .  A
C239        H248   1.077   1_455  S
C240        C689   1.401   1_554  A
C240        H249   1.083       .  S
C241        C242   1.402       .  A
C241        C688   1.401       .  A
C242        H250   1.084       .  S
C251        C252   1.398       .  A
C251        C256   1.401       .  A
C252        C253   1.391       .  A
C252        H265   1.084   1_455  S
C253        C254   1.414       .  A
C253        H266   1.076   1_455  S
C254        C260   1.426   1_565  A
C254        C255   1.422       .  A
C255        C257   1.399       .  A
C255        C256   1.403       .  A
C256        H267   1.085       .  S
C257        C258   1.390   1_565  A
C257        H268   1.084       .  S
C258        C259   1.399       .  A
C258        H269   1.084       .  S
C259        C260   1.422       .  A
C259        C264   1.403       .  A
C260        C261   1.414       .  A
C261        C262   1.391       .  A
C261        H270   1.076       .  S
C262        C263   1.399       .  A
C262        H271   1.083       .  S
C263        C264   1.400       .  A
C264        H272   1.084       .  S
C273        C274   1.399       .  A
C273        C278   1.400       .  A
C274        C275   1.394       .  A
C274        H287   1.083       .  S
C275        C276   1.415       .  A
C275        H288   1.077       .  S
C276        C282   1.426       .  A
C276        C277   1.422       .  A
C277        C279   1.398       .  A
C277        C278   1.400       .  A
C278        H289   1.085       .  S
C279        C280   1.387       .  A
C279        H290   1.084       .  S
C280        C281   1.398       .  A
C280        H291   1.084       .  S
C281        C282   1.423       .  A
C281        C286   1.401       .  A
C282        C283   1.414       .  A
C283        C284   1.393       .  A
C283        H292   1.077       .  S
C284        C285   1.400       .  A
C284        H293   1.083       .  S
C285        C286   1.399       .  A
C286        H294   1.085       .  S
C295        C300   1.401       .  A
C295        C744   1.400       .  A
C296        C743   1.401       .  A
C296        C745   1.395       .  A
C296        H309   1.083       .  S
C297        C298   1.415       .  A
C297        C744   1.395       .  A
C297        H758   1.077       .  S
C298        C304   1.427   1_565  A
C298        C299   1.422       .  A
C299        C301   1.399       .  A
C299        C300   1.401       .  A
C300        H311   1.084       .  S
C301        C302   1.388   1_565  A
C301        H312   1.084       .  S
C302        C303   1.399       .  A
C302        H313   1.084       .  S
C303        C304   1.422       .  A
C303        C308   1.402       .  A
C304        C305   1.415       .  A
C305        C754   1.394       .  A
C305        H762   1.077       .  S
C306        C753   1.395       .  A
C306        C755   1.399       .  A
C306        H315   1.083       .  S
C307        C308   1.401       .  A
C307        C754   1.399       .  A
C308        H316   1.085       .  S
H310        C745   1.077       .  S
H314        C753   1.077       .  S
C317        C318   1.400       .  A
C317        C322   1.398       .  A
C318        C319   1.398       .  A
C318        H331   1.083       .  S
C319        C320   1.416       .  A
C319        H332   1.078       .  S
C320        C326   1.430       .  A
C320        C321   1.423       .  A
C321        C323   1.398       .  A
C321        C322   1.402       .  A
C322        H333   1.085       .  S
C323        C324   1.387       .  A
C323        H334   1.084       .  S
C324        C325   1.398       .  A
C324        H335   1.084       .  S
C325        C326   1.422       .  A
C325        C330   1.402       .  A
C326        C327   1.416       .  A
C327        C328   1.399       .  A
C327        H336   1.078       .  S
C328        C329   1.401       .  A
C328        H337   1.083       .  S
C329        C330   1.399       .  A
C330        H338   1.085       .  S
C339        C340   1.397       .  A
C339        C344   1.401       .  A
C340        C341   1.390       .  A
C340        H353   1.084       .  S
C341        C342   1.413       .  A
C341        H354   1.078       .  S
C342        C348   1.427       .  A
C342        C343   1.424       .  A
C343        C345   1.400       .  A
C343        C344   1.408       .  A
C344        H355   1.085       .  S
C345        C346   1.393       .  A
C345        H356   1.084       .  S
C346        C347   1.401       .  A
C346        H357   1.084       .  S
C347        C348   1.422       .  A
C347        C352   1.407       .  A
C348        C349   1.414       .  A
C349        C350   1.392       .  A
C349        H358   1.078       .  S
C350        C351   1.399       .  A
C350        H359   1.083       .  S
C351        C352   1.403       .  A
C352        H360   1.085       .  S
C361        C362   1.402       .  A
C361        C366   1.400       .  A
C362        C363   1.400       .  A
C362        H375   1.083       .  S
C363        C364   1.415       .  A
C363        H376   1.079       .  S
C364        C370   1.430       .  A
C364        C365   1.422       .  A
C365        C367   1.398       .  A
C365        C366   1.400       .  A
C366        H377   1.085       .  S
C367        C368   1.386       .  A
C367        H378   1.084       .  S
C368        C369   1.398       .  A
C368        H379   1.084       .  S
C369        C370   1.423       .  A
C369        C374   1.400       .  A
C370        C371   1.416       .  A
C371        C372   1.400       .  A
C371        H380   1.079       .  S
C372        C373   1.400       .  A
C372        H381   1.083       .  S
C373        C374   1.397       .  A
C374        H382   1.085       .  S
C383        C384   1.401       .  A
C383        C388   1.399       .  A
C384        C385   1.398       .  A
C384        H397   1.083       .  S
C385        C386   1.415       .  A
C385        H398   1.078       .  S
C386        C392   1.429       .  A
C386        C387   1.423       .  A
C387        C389   1.398       .  A
C387        C388   1.402       .  A
C388        H399   1.085       .  S
C389        C390   1.387       .  A
C389        H400   1.084       .  S
C390        C391   1.398       .  A
C390        H401   1.084       .  S
C391        C392   1.421       .  A
C391        C396   1.400       .  A
C392        C393   1.416       .  A
C393        C394   1.399       .  A
C393        H402   1.078       .  S
C394        C395   1.401       .  A
C394        H403   1.083       .  S
C395        C396   1.399       .  A
C396        H404   1.085       .  S
C405        C406   1.401       .  A
C405        C410   1.403       .  A
C406        C407   1.392       .  A
C406        H419   1.083       .  S
C407        C408   1.413       .  A
C407        H420   1.078       .  S
C408        C414   1.427       .  A
C408        C409   1.422       .  A
C409        C411   1.401       .  A
C409        C410   1.407       .  A
C410        H421   1.084       .  S
C411        C412   1.392       .  A
C411        H422   1.084       .  S
C412        C413   1.400       .  A
C412        H423   1.084       .  S
C413        C414   1.423       .  A
C413        C418   1.407       .  A
C414        C415   1.414       .  A
C415        C416   1.392       .  A
C415        H424   1.078       .  S
C416        C417   1.397       .  A
C416        H425   1.084       .  S
C417        C418   1.400       .  A
C418        H426   1.085       .  S
C427        C428   1.397       .  A
C427        C432   1.397       .  A
C428        C429   1.396       .  A
C428        H441   1.084       .  S
C429        C430   1.416       .  A
C429        H442   1.077       .  S
C430        C436   1.428       .  A
C430        C431   1.423       .  A
C431        C433   1.398       .  A
C431        C432   1.403       .  A
C432        H443   1.085       .  S
C433        C434   1.388       .  A
C433        H444   1.084       .  S
C434        C435   1.399       .  A
C434        H445   1.084       .  S
C435        C436   1.422       .  A
C435        C440   1.403       .  A
C436        C437   1.414       .  A
C437        C438   1.395       .  A
C437        H446   1.077       .  S
C438        C439   1.401       .  A
C438        H447   1.083       .  S
C439        C440   1.401       .  A
C440        H448   1.084       .  S
O449       Ni457   1.906       .  S
O449        C459   1.279       .  A
O450       Ni457   1.910       .  S
O450        C460   1.281       .  A
O451       Ni457   1.919       .  S
O451        C461   1.282       .  A
O452       Ni457   1.922       .  S
O452        C462   1.282       .  A
O453       Ni458   1.910       .  S
O453        C462   1.281       .  A
O454       Ni458   1.910       .  S
O454        C461   1.279       .  A
O455       Ni458   1.909       .  S
O455        C460   1.280       .  A
O456       Ni458   1.914       .  S
O456        C459   1.282       .  A
Ni457      Ni458   2.389       .  S
C459        C535   1.474       .  S
C460        C562   1.474       .  S
C461        C875   1.466       .  S
C462        C853   1.480       .  S
O463       Ni471   1.910       .  S
O463        C473   1.280       .  A
O464       Ni471   1.914       .  S
O464        C474   1.282       .  A
O465       Ni471   1.911   1_655  S
O465        C475   1.281       .  A
O466       Ni471   1.911       .  S
O466        C476   1.280       .  A
O467       Ni472   1.920       .  S
O467        C476   1.281       .  A
O468       Ni472   1.919   1_655  S
O468        C475   1.282       .  A
O469       Ni472   1.904       .  S
O469        C474   1.279       .  A
O470       Ni472   1.909       .  S
O470        C473   1.281       .  A
Ni471      Ni472   2.389       .  S
C473        C598   1.474       .  S
C474        C571   1.473       .  S
C475        C887   1.480       .  S
C476        C865   1.470       .  S
O477       Ni485   1.911       .  S
O477        C487   1.281       .  A
O478       Ni485   1.915       .  S
O478        C488   1.282       .  A
O479       Ni485   1.918       .  S
O479        C489   1.282       .  A
O480       Ni485   1.919       .  S
O480        C490   1.281       .  A
O481       Ni486   1.913       .  S
O481        C490   1.282       .  A
O482       Ni486   1.914       .  S
O482        C489   1.280       .  A
O483       Ni486   1.904       .  S
O483        C488   1.279       .  A
O484       Ni486   1.908       .  S
O484        C487   1.280       .  A
Ni485      Ni486   2.388       .  S
C487        C553   1.474       .  S
C488        C544   1.475       .  S
C489        C831   1.475       .  S
C490        C809   1.480       .  S
O491       Ni499   1.906       .  S
O491        C501   1.279       .  A
O492       Ni499   1.912       .  S
O492        C502   1.281       .  A
O493       Ni499   1.919       .  S
O493        C503   1.281       .  A
O494       Ni499   1.917       .  S
O494        C504   1.282       .  A
O495       Ni500   1.915       .  S
O495        C504   1.280       .  A
O496       Ni500   1.912       .  S
O496        C503   1.281       .  A
O497       Ni500   1.912       .  S
O497        C502   1.281       .  A
O498       Ni500   1.917       .  S
O498        C501   1.282       .  A
Ni499      Ni500   2.389       .  S
C501        C580   1.476       .  S
C502        C589   1.477       .  S
C503        C843   1.476   1_455  S
C504        C821   1.471       .  S
O505       Ni513   1.906       .  S
O505        C515   1.280       .  A
O506       Ni513   1.911       .  S
O506        C516   1.281       .  A
O507       Ni513   1.915       .  S
O507        C517   1.281       .  A
O508       Ni513   1.911       .  S
O508        C518   1.281       .  A
O509       Ni514   1.919       .  S
O509        C518   1.281       .  A
O510       Ni514   1.919       .  S
O510        C517   1.283       .  A
O511       Ni514   1.907       .  S
O511        C516   1.280       .  A
O512       Ni514   1.912       .  S
O512        C515   1.281       .  A
Ni513      Ni514   2.389       .  S
C515        C537   1.474       .  S
C516        C564   1.472       .  S
C517        C777   1.479       .  S
C518        C787   1.473       .  S
O519       Ni527   1.904       .  S
O519        C529   1.279       .  A
O520       Ni527   1.909       .  S
O520        C530   1.281       .  A
O521       Ni527   1.918       .  S
O521        C531   1.282       .  A
O522       Ni527   1.919   1_655  S
O522        C532   1.281       .  A
O523       Ni528   1.914   1_655  S
O523        C532   1.281       .  A
O524       Ni528   1.915       .  S
O524        C531   1.280       .  A
O525       Ni528   1.910       .  S
O525        C530   1.280       .  A
O526       Ni528   1.916       .  S
O526        C529   1.282       .  A
Ni527      Ni528   2.389       .  S
C529        C600   1.475       .  S
C530        C573   1.474       .  S
C531        C765   1.474       .  S
C532        C799   1.477       .  S
C533        C743   1.483       .  S
C533        C538   1.403   1_554  A
C534        C535   1.405       .  A
C534        H539   1.083       .  S
C535        C536   1.401       .  A
C536        H540   1.083       .  S
C537        C538   1.403       .  A
C538        H541   1.083       .  S
C542        C755   1.480       .  S
C542        C543   1.402   1_554  A
C543        C544   1.403       .  A
C543        H548   1.083       .  S
C544        C545   1.401   1_556  A
C545        H549   1.083       .  S
C546        C615   1.475       .  S
C546        C547   1.403       .  A
C547        H550   1.083       .  S
C551        C721   1.477       .  S
C551        C552   1.401       .  A
C551        C556   1.402       .  A
C552        C553   1.402       .  A
C552        H557   1.084       .  S
C553        C554   1.403       .  A
C554        C555   1.402       .  A
C554        H558   1.083       .  S
C555        C616   1.476       .  S
C555        C556   1.403       .  A
C556        H559   1.083       .  S
C560        C733   1.477       .  S
C560        C561   1.402       .  A
C560        C565   1.401       .  A
C561        C562   1.403       .  A
C561        H566   1.084       .  S
C562        C563   1.402       .  A
C563        C564   1.401       .  A
C563        H567   1.083       .  S
C564        C565   1.402       .  A
C565        H568   1.084       .  S
C569        C699   1.476       .  S
C569        C570   1.400       .  A
C569        C574   1.401       .  A
C570        C571   1.402       .  A
C570        H575   1.084       .  S
C571        C572   1.401       .  A
C572        C573   1.404       .  A
C572        H576   1.083   1_455  S
C573        C574   1.404       .  A
C574        H577   1.084       .  S
C578        C711   1.478       .  S
C578        C579   1.401       .  A
C578        C583   1.401       .  A
C579        C580   1.405       .  A
C579        H584   1.084       .  S
C580        C581   1.403       .  A
C581        C582   1.403       .  A
C581        H585   1.083       .  S
C582        C632   1.474       .  S
C582        C583   1.402       .  A
C583        H586   1.084       .  S
C587        C689   1.485       .  S
C587        C588   1.404       .  A
C588        C589   1.404       .  A
C588        H593   1.083       .  S
C589        C590   1.402       .  A
C590        H594   1.083       .  S
C591        C631   1.477       .  S
C591        C592   1.405       .  A
C592        H595   1.083       .  S
C596        C677   1.483       .  S
C596        C601   1.403   1_554  A
C597        C598   1.404       .  A
C597        H602   1.083       .  S
C599        C600   1.401   1_554  A
C599        H603   1.083       .  S
C600        C601   1.404       .  A
C601        H604   1.083       .  S
O605       Ni613   1.907       .  S
O605        C615   1.280       .  A
O606       Ni613   1.907       .  S
O606        C616   1.279       .  A
O607       Ni613   1.916       .  S
O607        C617   1.282       .  A
O608       Ni613   1.915       .  S
O608        C618   1.281       .  A
O609       Ni614   1.915       .  S
O609        C618   1.281       .  A
O610       Ni614   1.915       .  S
O610        C617   1.281       .  A
O611       Ni614   1.915       .  S
O611        C616   1.282       .  A
O612       Ni614   1.912       .  S
O612        C615   1.281       .  A
Ni613      Ni614   2.388       .  S
C617        C667   1.481       .  S
C618        C645   1.474       .  S
O619       Ni627   1.916       .  S
O619        C629   1.280   1_455  A
O620       Ni627   1.915       .  S
O620        C630   1.282       .  A
O621       Ni627   1.907       .  S
O621        C631   1.279       .  A
O622       Ni627   1.911       .  S
O622        C632   1.281       .  A
O623       Ni628   1.909       .  S
O623        C632   1.281       .  A
O624       Ni628   1.917       .  S
O624        C631   1.283       .  A
O625       Ni628   1.916       .  S
O625        C630   1.281       .  A
O626       Ni628   1.915       .  S
O626        C629   1.280   1_455  A
Ni627      Ni628   2.390       .  S
C629        C655   1.464       .  S
C630        C633   1.476       .  S
C633        C634   1.399       .  A
C633        C638   1.402       .  A
C634        C635   1.394       .  A
C634        H647   1.083       .  S
C635        C636   1.414       .  A
C635        H648   1.077       .  S
C636        C642   1.428       .  A
C636        C637   1.422       .  A
C637        C639   1.400       .  A
C637        C638   1.405       .  A
C638        H649   1.085       .  S
C639        C640   1.390       .  A
C639        H650   1.084       .  S
C640        C641   1.400       .  A
C640        H651   1.084       .  S
C641        C642   1.422       .  A
C641        C646   1.405       .  A
C642        C643   1.415       .  A
C643        C644   1.394       .  A
C643        H652   1.077       .  S
C644        C645   1.398       .  A
C644        H653   1.083       .  S
C645        C646   1.401       .  A
C646        H654   1.085       .  S
C655        C656   1.396       .  A
C655        C660   1.396       .  A
C656        C657   1.397       .  A
C656        H669   1.084       .  S
C657        C658   1.417       .  A
C657        H670   1.078       .  S
C658        C664   1.429       .  A
C658        C659   1.424       .  A
C659        C661   1.398       .  A
C659        C660   1.403       .  A
C660        H671   1.085       .  S
C661        C662   1.388       .  A
C661        H672   1.084       .  S
C662        C663   1.399       .  A
C662        H673   1.084       .  S
C663        C664   1.422       .  A
C663        C668   1.403       .  A
C664        C665   1.414       .  A
C665        C666   1.396       .  A
C665        H674   1.078       .  S
C666        C667   1.401       .  A
C666        H675   1.083       .  S
C667        C668   1.401       .  A
C668        H676   1.084       .  S
C677        C682   1.401   1_554  A
C678        C679   1.395   1_655  A
C678        H691   1.083       .  S
C679        H692   1.077   1_455  S
C680        C686   1.428       .  A
C680        C681   1.422   1_554  A
C681        C683   1.399       .  A
C681        C682   1.402       .  A
C682        H693   1.084       .  S
C683        C684   1.388       .  A
C683        H694   1.084       .  S
C684        C685   1.399       .  A
C684        H695   1.084       .  S
C685        C686   1.422   1_556  A
C685        C690   1.402       .  A
C687        C688   1.395       .  A
C687        H696   1.077   1_455  S
C688        H697   1.083       .  S
C689        C690   1.402       .  A
C690        H698   1.084       .  S
C699        C700   1.398       .  A
C699        C704   1.401       .  A
C700        C701   1.391       .  A
C700        H713   1.084   1_455  S
C701        C702   1.414       .  A
C701        H714   1.076   1_455  S
C702        C708   1.426   1_565  A
C702        C703   1.423       .  A
C703        C705   1.399       .  A
C703        C704   1.404       .  A
C704        H715   1.085       .  S
C705        C706   1.390   1_565  A
C705        H716   1.084       .  S
C706        C707   1.399       .  A
C706        H717   1.084       .  S
C707        C708   1.422       .  A
C707        C712   1.404       .  A
C708        C709   1.414       .  A
C709        C710   1.391       .  A
C709        H718   1.076       .  S
C710        C711   1.399       .  A
C710        H719   1.084       .  S
C711        C712   1.400       .  A
C712        H720   1.084       .  S
C721        C722   1.399       .  A
C721        C726   1.400       .  A
C722        C723   1.394       .  A
C722        H735   1.083       .  S
C723        C724   1.415       .  A
C723        H736   1.077       .  S
C724        C730   1.427       .  A
C724        C725   1.422       .  A
C725        C727   1.398       .  A
C725        C726   1.401       .  A
C726        H737   1.085       .  S
C727        C728   1.387       .  A
C727        H738   1.084       .  S
C728        C729   1.398       .  A
C728        H739   1.084       .  S
C729        C730   1.423       .  A
C729        C734   1.401       .  A
C730        C731   1.415       .  A
C731        C732   1.394       .  A
C731        H740   1.077       .  S
C732        C733   1.400       .  A
C732        H741   1.083       .  S
C733        C734   1.399       .  A
C734        H742   1.085       .  S
C743        C748   1.401   1_554  A
C744        H757   1.083       .  S
C745        C746   1.415       .  A
C746        C752   1.428   1_565  A
C746        C747   1.422   1_554  A
C747        C749   1.399       .  A
C747        C748   1.401       .  A
C748        H759   1.084       .  S
C749        C750   1.388   1_565  A
C749        H760   1.084       .  S
C750        C751   1.399       .  A
C750        H761   1.084       .  S
C751        C752   1.422   1_556  A
C751        C756   1.401       .  A
C752        C753   1.415       .  A
C754        H763   1.083       .  S
C755        C756   1.401   1_554  A
C756        H764   1.084       .  S
C765        C766   1.400       .  A
C765        C770   1.398       .  A
C766        C767   1.398       .  A
C766        H779   1.083       .  S
C767        C768   1.416       .  A
C767        H780   1.078       .  S
C768        C774   1.430       .  A
C768        C769   1.423       .  A
C769        C771   1.398       .  A
C769        C770   1.403       .  A
C770        H781   1.085       .  S
C771        C772   1.388       .  A
C771        H782   1.084       .  S
C772        C773   1.398       .  A
C772        H783   1.084       .  S
C773        C774   1.422       .  A
C773        C778   1.403       .  A
C774        C775   1.416       .  A
C775        C776   1.399       .  A
C775        H784   1.078       .  S
C776        C777   1.401       .  A
C776        H785   1.083       .  S
C777        C778   1.400       .  A
C778        H786   1.085       .  S
C787        C788   1.397       .  A
C787        C792   1.401       .  A
C788        C789   1.390       .  A
C788        H801   1.084       .  S
C789        C790   1.413       .  A
C789        H802   1.078       .  S
C790        C796   1.427       .  A
C790        C791   1.424       .  A
C791        C793   1.400       .  A
C791        C792   1.408       .  A
C792        H803   1.085       .  S
C793        C794   1.392       .  A
C793        H804   1.084       .  S
C794        C795   1.401       .  A
C794        H805   1.084       .  S
C795        C796   1.422       .  A
C795        C800   1.407       .  A
C796        C797   1.414       .  A
C797        C798   1.392       .  A
C797        H806   1.078       .  S
C798        C799   1.399       .  A
C798        H807   1.083       .  S
C799        C800   1.403       .  A
C800        H808   1.085       .  S
C809        C810   1.402       .  A
C809        C814   1.400       .  A
C810        C811   1.399       .  A
C810        H823   1.083       .  S
C811        C812   1.415       .  A
C811        H824   1.079       .  S
C812        C818   1.430       .  A
C812        C813   1.422       .  A
C813        C815   1.398       .  A
C813        C814   1.401       .  A
C814        H825   1.085       .  S
C815        C816   1.387       .  A
C815        H826   1.084       .  S
C816        C817   1.398       .  A
C816        H827   1.084       .  S
C817        C818   1.423       .  A
C817        C822   1.401       .  A
C818        C819   1.416       .  A
C819        C820   1.399       .  A
C819        H828   1.078       .  S
C820        C821   1.400       .  A
C820        H829   1.083       .  S
C821        C822   1.397       .  A
C822        H830   1.085       .  S
C831        C832   1.400       .  A
C831        C836   1.399       .  A
C832        C833   1.398       .  A
C832        H845   1.083       .  S
C833        C834   1.415       .  A
C833        H846   1.078       .  S
C834        C840   1.429       .  A
C834        C835   1.423       .  A
C835        C837   1.398       .  A
C835        C836   1.403       .  A
C836        H847   1.085       .  S
C837        C838   1.388       .  A
C837        H848   1.084       .  S
C838        C839   1.399       .  A
C838        H849   1.084       .  S
C839        C840   1.421       .  A
C839        C844   1.401       .  A
C840        C841   1.416       .  A
C841        C842   1.399       .  A
C841        H850   1.078       .  S
C842        C843   1.401       .  A
C842        H851   1.083       .  S
C843        C844   1.400       .  A
C844        H852   1.085       .  S
C853        C854   1.401       .  A
C853        C858   1.404       .  A
C854        C855   1.392       .  A
C854        H867   1.083       .  S
C855        C856   1.413       .  A
C855        H868   1.078       .  S
C856        C862   1.426       .  A
C856        C857   1.422       .  A
C857        C859   1.401       .  A
C857        C858   1.407       .  A
C858        H869   1.084       .  S
C859        C860   1.392       .  A
C859        H870   1.084       .  S
C860        C861   1.400       .  A
C860        H871   1.084       .  S
C861        C862   1.423       .  A
C861        C866   1.407       .  A
C862        C863   1.414       .  A
C863        C864   1.392       .  A
C863        H872   1.078       .  S
C864        C865   1.397       .  A
C864        H873   1.084       .  S
C865        C866   1.401       .  A
C866        H874   1.085       .  S
C875        C876   1.397       .  A
C875        C880   1.397       .  A
C876        C877   1.395       .  A
C876        H889   1.084       .  S
C877        C878   1.416       .  A
C877        H890   1.077       .  S
C878        C884   1.428       .  A
C878        C879   1.423       .  A
C879        C881   1.399       .  A
C879        C880   1.403       .  A
C880        H891   1.085       .  S
C881        C882   1.389       .  A
C881        H892   1.084       .  S
C882        C883   1.399       .  A
C882        H893   1.084       .  S
C883        C884   1.422       .  A
C883        C888   1.404       .  A
C884        C885   1.414       .  A
C885        C886   1.395       .  A
C885        H894   1.077       .  S
C886        C887   1.401       .  A
C886        H895   1.083       .  S
C887        C888   1.401       .  A
C888        H896   1.084       .  S
