geometry optimzed in LAMMPS
_audit_creation_date              2020-11-30 
_audit_creation_method            'lammps2cif' 
_symmetry_space_group_name_H-M    'P1' 
_symmetry_Int_Tables_number       1 
_symmetry_cell_setting            triclinic 
loop_ 
_symmetry_equiv_pos_as_xyz 
  x,y,z 
_cell_length_a                    24.081523849387054 
_cell_length_b                    23.924983633104343 
_cell_length_c                    49.74602582578514 
_cell_angle_alpha                 90.06977408511742 
_cell_angle_beta                  89.87714561140396 
_cell_angle_gamma                 89.72871169613136 
loop_ 
_atom_site_label 
_atom_site_type_symbol 
_atom_site_fract_x 
_atom_site_fract_y 
_atom_site_fract_z 
_atom_site_charge 
C1          C  0.24725116  0.49886298  0.24913888    -0.02630
C2          C  0.47827440  0.23297320  0.99882863     0.00420
C3          C  0.03161957  0.25476668  0.99956067     0.00420
C4          C  0.25155142  0.00124210  0.75106743    -0.02630
C5          C  0.50234175  0.25398429  0.75209677    -0.02630
C6          C  0.27270567  0.47329224  0.00098434     0.00420
C7          C  0.24855459  0.02588194  0.00009888     0.00420
N8          N  0.22950257  0.37190458  0.85443671    -0.06260
N9          N  0.21467778  0.39435125  0.87781545    -0.58380
N10         N  0.28087581  0.37933854  0.79218773    -0.05940
N11         N  0.29931964  0.42232929  0.77794362    -0.60510
N12         N  0.22591425  0.37998978  0.79249085    -0.05540
N13         N  0.20671603  0.42307603  0.77858622    -0.58360
N14         N  0.28386397  0.36976963  0.85301059    -0.05220
N15         N  0.30680869  0.39064522  0.87476300    -0.60860
C16         C  0.26368518  0.40651822  0.89021448     0.95910
C17         C  0.25266664  0.44918231  0.76927417     0.95690
N18         N  0.37742342  0.22394977  0.79074506    -0.06450
N19         N  0.42166654  0.20588763  0.77731649    -0.58960
N20         N  0.36874245  0.27340310  0.85342881    -0.04570
N21         N  0.38807729  0.28817600  0.87734476    -0.60210
N22         N  0.36813553  0.21862352  0.85153224    -0.06480
N23         N  0.38771808  0.19525426  0.87350189    -0.59230
N24         N  0.37776694  0.27921074  0.79153746    -0.04210
N25         N  0.42182203  0.29890726  0.77868303    -0.60300
Mn26       Mn  0.32846641  0.32603670  0.82184388     1.18440
C27         C  0.44900845  0.25296702  0.76955880     0.98000
C28         C  0.40055475  0.23875329  0.88939286     0.98900
N29         N  0.12526143  0.28363905  0.79224767    -0.06500
N30         N  0.08132648  0.30233827  0.77874857    -0.62810
N31         N  0.13449668  0.22859096  0.85327019    -0.05300
N32         N  0.11367739  0.21122485  0.87638824    -0.63480
N33         N  0.13512395  0.28349828  0.85279962    -0.06000
N34         N  0.11418081  0.30451058  0.87506468    -0.63070
N35         N  0.12554478  0.22828558  0.79197151    -0.04900
N36         N  0.08227800  0.20923863  0.77848100    -0.63760
Mn37       Mn  0.17813113  0.33068622  0.82235702     1.10660
C38         C  0.05489983  0.25545223  0.76996620     0.99220
C39         C  0.10038118  0.25920013  0.88949643     0.99300
N40         N  0.27544183  0.12971570  0.85077047    -0.06010
N41         N  0.29341108  0.10400609  0.87254992    -0.61380
N42         N  0.22176585  0.12655428  0.79038864    -0.05330
N43         N  0.20344124  0.08178989  0.77736221    -0.58110
N44         N  0.27674091  0.12705068  0.78975561    -0.06640
N45         N  0.29586136  0.08304481  0.77645953    -0.60950
N46         N  0.22105618  0.13225485  0.85123485    -0.05630
N47         N  0.20118444  0.10864585  0.87319778    -0.58140
Mn48       Mn  0.32501776  0.17451647  0.81988125     1.20190
Mn49       Mn  0.17490699  0.17844626  0.82109894     1.10090
Cl50       Cl  0.25145853  0.25247797  0.81952796    -0.86110
C51         C  0.24676222  0.09066020  0.88647651     0.96230
C52         C  0.25006188  0.05512189  0.76837957     0.96020
N53         N  0.22182309  0.37609874  0.20864247    -0.06260
N54         N  0.20274969  0.41945149  0.22243532    -0.58380
N55         N  0.27821223  0.36823408  0.14798307    -0.05940
N56         N  0.29958216  0.39325435  0.12684247    -0.60510
N57         N  0.22378433  0.37109167  0.14775131    -0.05540
N58         N  0.20738549  0.39867391  0.12616631    -0.58360
N59         N  0.27684698  0.37582046  0.20846897    -0.05220
N60         N  0.29530712  0.41943262  0.22232856    -0.60860
C61         C  0.24865144  0.44621575  0.23120429     0.95910
C62         C  0.25519304  0.41247189  0.11318580     0.95690
N63         N  0.36343773  0.21655982  0.14682062    -0.06450
N64         N  0.38445738  0.19422978  0.12476105    -0.58960
N65         N  0.37359639  0.27537764  0.20780554    -0.04570
N66         N  0.41650835  0.29514155  0.22141698    -0.60210
N67         N  0.37393533  0.22007899  0.20786234    -0.06480
N68         N  0.41772895  0.20202394  0.22157462    -0.59230
N69         N  0.36570728  0.27138762  0.14600096    -0.04210
N70         N  0.38852995  0.28713910  0.12294979    -0.60300
Mn71       Mn  0.32431671  0.32316118  0.17815131     1.18440
C72         C  0.40040174  0.23837014  0.10986972     0.98000
C73         C  0.44386218  0.24922490  0.23025875     0.98660
N74         N  0.12795777  0.28102340  0.14819755    -0.06500
N75         N  0.10394713  0.30032744  0.12618003    -0.62810
N76         N  0.12175220  0.22531816  0.20988459    -0.05300
N77         N  0.07812619  0.20604293  0.22308345    -0.63480
N78         N  0.12062020  0.28060466  0.20916632    -0.06000
N79         N  0.07572771  0.29905235  0.22207232    -0.63070
N80         N  0.12603738  0.22620404  0.14884368    -0.04900
N81         N  0.10089528  0.20746913  0.12711474    -0.63760
Mn82       Mn  0.17294007  0.32789940  0.17891693     1.10660
C83         C  0.08674444  0.25395613  0.11306977     0.99220
C84         C  0.04961135  0.25210448  0.23095396     0.99300
N85         N  0.27320663  0.12301310  0.20904349    -0.06010
N86         N  0.29232667  0.07881424  0.22222485    -0.61380
N87         N  0.21339770  0.13126265  0.14893024    -0.05330
N88         N  0.19049157  0.11095314  0.12696986    -0.58110
N89         N  0.26785633  0.12945473  0.14746693    -0.06640
N90         N  0.28290862  0.10792957  0.12403407    -0.60950
N91         N  0.21825523  0.12403432  0.20973301    -0.05630
N92         N  0.19991581  0.08033209  0.22351228    -0.58140
Mn93       Mn  0.32030704  0.17159432  0.17845397     1.20190
Mn94       Mn  0.16962635  0.17634843  0.18012753     1.10090
Cl95       Cl  0.24686287  0.24989802  0.18047259    -0.86110
C96         C  0.24644811  0.05251235  0.23159311     0.96230
C97         C  0.23407989  0.09600762  0.11161609     0.96020
N98         N  0.47490781  0.12863482  0.71334142    -0.06260
N99         N  0.45649356  0.17412242  0.72574677    -0.58380
N100        N  0.03127247  0.12402354  0.65400317    -0.05940
N101        N  0.05394540  0.14187107  0.63158135    -0.60510
N102        N  0.47706880  0.12171879  0.65176718    -0.05540
N103        N  0.46213082  0.13706323  0.62725713    -0.58360
N104        N  0.02979672  0.12672248  0.71447141    -0.05220
N105        N  0.04880745  0.17081100  0.72767815    -0.60860
C106        C  0.50275277  0.20003678  0.73497984     0.95910
C107        C  0.51085911  0.14981711  0.61499665     0.95690
N108        N  0.11535066  0.47871066  0.64759927    -0.06450
N109        N  0.12743451  0.46570767  0.62220903    -0.58960
N110        N  0.12724638  0.02715898  0.71214732    -0.04570
N111        N  0.16972957  0.04606142  0.72621402    -0.60210
N112        N  0.12985502  0.47213508  0.71009061    -0.06480
N113        N  0.17449769  0.45333597  0.72301735    -0.59230
N114        N  0.11730401  0.03313619  0.65089570    -0.04210
N115        N  0.13136583  0.05764172  0.62828396    -0.60300
Mn116      Mn  0.07697217  0.07774037  0.68405496     1.18440
C117        C  0.13764091  0.01589757  0.61044177     0.98000
C118        C  0.19898384  0.99989811  0.73325445     0.98660
N119        N  0.38366608  0.03289083  0.65160155    -0.06500
N120        N  0.35960125  0.05342994  0.62996172    -0.62810
N121        N  0.37621764  0.47485637  0.71179117    -0.05300
N122        N  0.33207239  0.45555579  0.72472390    -0.63480
N123        N  0.37610139  0.03018179  0.71225785    -0.06000
N124        N  0.33187530  0.04859252  0.72555111    -0.63070
N125        N  0.38357438  0.47811690  0.65092409    -0.04900
N126        N  0.35991029  0.46040219  0.62863851    -0.63760
Mn127      Mn  0.42724236  0.07920359  0.68284453     1.10660
C128        C  0.34456674  0.00778768  0.61574811     0.99220
C129        C  0.30475188  0.00176058  0.73356740     0.99300
N130        N  0.03021733  0.37428590  0.70966422    -0.06010
N131        N  0.04880357  0.33098816  0.72372846    -0.61380
N132        N  0.47344926  0.38608190  0.64909134    -0.05330
N133        N  0.45310021  0.36400140  0.62694083    -0.58110
N134        N  0.02789501  0.38519677  0.64831544    -0.06640
N135        N  0.04550040  0.36212806  0.62565536    -0.60950
N136        N  0.47520747  0.37574516  0.71053315    -0.05630
N137        N  0.45623842  0.33371638  0.72524042    -0.58140
Mn138      Mn  0.07728366  0.42641769  0.67946922     1.20190
Mn139      Mn  0.42655752  0.42783821  0.68132261     1.10090
Cl140      Cl  0.50183369  0.00243946  0.68391962    -0.86110
C141        C  0.50238554  0.30609722  0.73369235     0.96230
C142        C  0.49828253  0.34861284  0.61244606     0.96020
N143        N  0.46779648  0.37205972  0.29037879    -0.06260
N144        N  0.44898430  0.32892677  0.27627035    -0.58380
N145        N  0.02485984  0.38292863  0.35106623    -0.05940
N146        N  0.04504161  0.36072722  0.37323667    -0.60510
N147        N  0.47042874  0.38253061  0.35175471    -0.05540
N148        N  0.45266190  0.35970634  0.37437394    -0.58360
N149        N  0.02279653  0.37266357  0.28972113    -0.05220
N150        N  0.04153713  0.32996948  0.27527481    -0.60860
C151        C  0.49534409  0.30303224  0.26660822     0.95910
C152        C  0.99974893  0.34578496  0.38763998     0.95690
N153        N  0.11501010  0.02899988  0.34877088    -0.06450
N154        N  0.13879801  0.04957897  0.37042416    -0.58960
N155        N  0.12262209  0.47117759  0.28842414    -0.04570
N156        N  0.16690017  0.45202385  0.27529653    -0.60210
N157        N  0.12242382  0.02654356  0.28817318    -0.06480
N158        N  0.16642604  0.04511803  0.27494487    -0.59230
N159        N  0.11511652  0.47419853  0.34951763    -0.04210
N160        N  0.13850475  0.45657126  0.37193734    -0.60300
Mn161      Mn  0.07196924  0.42432023  0.31895548     1.18440
C162        C  0.15365493  0.00406406  0.38479080     0.98000
C163        C  0.19388397  0.99848370  0.26662709     0.98660
N164        N  0.38302430  0.47697189  0.35265505    -0.06500
N165        N  0.37096635  0.46394328  0.37801578    -0.62810
N166        N  0.37130902  0.02583532  0.28809265    -0.05300
N167        N  0.32876271  0.04476967  0.27389160    -0.63480
N168        N  0.36892113  0.47081767  0.29024468    -0.06000
N169        N  0.32440685  0.45205787  0.27741089    -0.63070
N170        N  0.38107211  0.03146152  0.34947505    -0.04900
N171        N  0.36712208  0.05597007  0.37215792    -0.63760
Mn172      Mn  0.42116556  0.42451492  0.32069893     1.10660
C173        C  0.36082330  0.01418709  0.38989784     0.99220
C174        C  0.29970164  0.99854964  0.26701345     0.99300
N175        N  0.02414956  0.12534293  0.28710439    -0.06010
N176        N  0.04282833  0.17020115  0.27440640    -0.61380
N177        N  0.46727637  0.12152301  0.34663916    -0.05330
N178        N  0.44459071  0.13953990  0.36909334    -0.58110
N179        N  0.02149289  0.11872013  0.34885873    -0.06640
N180        N  0.03639153  0.13388212  0.37340952    -0.60950
N181        N  0.46925888  0.12433254  0.28622542    -0.05630
N182        N  0.45044078  0.16865134  0.27311964    -0.58140
Mn183      Mn  0.07143037  0.07569098  0.31763124     1.20190
Mn184      Mn  0.42160386  0.07584682  0.31645253     1.10090
Cl185      Cl  0.49671448  0.99987588  0.31713280    -0.86110
C186        C  0.49657561  0.19685721  0.26544111     0.96230
C187        C  0.98765088  0.14707918  0.38570043     0.96020
C188        C  0.99980479  0.23117350  0.51401680     0.00420
C189        C  0.99867388  0.23093707  0.48647363     0.00420
C190        C  0.24538786  0.52309266  0.51382999     0.00420
C191        C  0.25314454  0.52261169  0.48657996     0.00420
C192        C  0.99619620  0.25059093  0.24828902    -0.02630
C193        C  0.98001773  0.15478426  0.41508330    -0.05480
C194        C  0.43498170  0.18574228  0.42559211    -0.02600
C195        C  0.43122126  0.19392204  0.45356393     0.02390
C196        C  0.97782178  0.18248836  0.46991513    -0.05480
C197        C  0.01438652  0.14062362  0.46055525    -0.02590
C198        C  0.01236204  0.12402784  0.43334085     0.02390
C199        C  0.39377519  0.21055291  0.40802171     0.37040
C200        C  0.04229777  0.10574189  0.47970328     0.37030
C201        C  0.03340454  0.07010775  0.42501488     0.35450
C202        C  0.38279021  0.22039167  0.46501234     0.35450
N203        N  0.04797815  0.02648482  0.41783864    -0.39370
N204        N  0.34426387  0.24294258  0.47377994    -0.39370
N205        N  0.06070660  0.07531001  0.49541403    -0.38810
N206        N  0.36109783  0.23061631  0.39395034    -0.38820
C207        C  0.00248516  0.32300579  0.41571751    -0.05480
C208        C  0.05224385  0.29826985  0.42521529    -0.02600
C209        C  0.05566366  0.27844791  0.45181846     0.02390
C210        C  0.00975092  0.28183593  0.46940438    -0.05480
C211        C  0.46485433  0.31570131  0.46148870    -0.02590
C212        C  0.45763952  0.32931415  0.43407218     0.02390
C213        C  0.09851084  0.28751247  0.40713433     0.37040
C214        C  0.42365287  0.33214787  0.48108148     0.37030
C215        C  0.40279916  0.34595050  0.42498913     0.35450
C216        C  0.10778700  0.25602596  0.46117288     0.35450
N217        N  0.35862140  0.35843709  0.41801918    -0.39370
N218        N  0.15178145  0.24214148  0.46755120    -0.39370
N219        N  0.38955777  0.34415030  0.49644608    -0.38810
N220        N  0.13519156  0.27821215  0.39271458    -0.38820
C221        C  0.17377211  0.50593953  0.41318912    -0.05480
C222        C  0.19727011  0.45764937  0.42525419    -0.02600
C223        C  0.21450022  0.45921987  0.45227353     0.02390
C224        C  0.20799957  0.50855126  0.46751649    -0.05480
C225        C  0.17736849  0.05295095  0.45690749    -0.02590
C226        C  0.16623527  0.05472637  0.42923367     0.02390
C227        C  0.21049636  0.40852137  0.40931966     0.37040
C228        C  0.16594042  0.10031108  0.47403286     0.37030
C229        C  0.15178781  0.10834680  0.41755163     0.35450
C230        C  0.24373861  0.41169399  0.46366513     0.35450
N231        N  0.14106479  0.15167277  0.40859914    -0.39370
N232        N  0.26737210  0.37341405  0.47216645    -0.39370
N233        N  0.15821556  0.13706114  0.48867912    -0.38810
N234        N  0.22210521  0.36952142  0.39668794    -0.38820
C235        C  0.30569644  0.53943919  0.47181276    -0.05480
C236        C  0.29977314  0.58230826  0.45241290    -0.02600
C237        C  0.31299828  0.57158119  0.42541177     0.02390
C238        C  0.34634866  0.52489282  0.41877042    -0.05480
C239        C  0.37066723  0.99512952  0.44038495    -0.02590
C240        C  0.34780077  0.99992476  0.46668994     0.02390
C241        C  0.27558766  0.63559711  0.45934035     0.37040
C242        C  0.42417002  0.96912786  0.43674653     0.37030
C243        C  0.37393308  0.97316741  0.48934932     0.35450
C244        C  0.29013306  0.60786998  0.40477571     0.35450
N245        N  0.39633219  0.95533594  0.50804514    -0.39370
N246        N  0.27157126  0.63651197  0.38831686    -0.39370
N247        N  0.46824479  0.95036329  0.43458830    -0.38810
N248        N  0.25569661  0.67879503  0.46352812    -0.38820
C249        C  0.15187793  0.02658611  0.58155327    -0.05480
C250        C  0.12779036  0.49664207  0.55998974    -0.02600
C251        C  0.15073374  0.50093811  0.53370138     0.02390
C252        C  0.19263212  0.54024849  0.52851098    -0.05480
C253        C  0.19826838  0.08338597  0.54781567    -0.02590
C254        C  0.18493009  0.07311685  0.57483889     0.02390
C255        C  0.07440335  0.47092485  0.56365302     0.37040
C256        C  0.22286379  0.13618126  0.54080167     0.37030
C257        C  0.20761648  0.10951196  0.59542568     0.35450
C258        C  0.12494624  0.47366251  0.51113382     0.35450
N259        N  0.22612260  0.13823471  0.61182920    -0.39370
N260        N  0.10268208  0.45549336  0.49250408    -0.39370
N261        N  0.24314069  0.17892999  0.53647864    -0.38810
N262        N  0.03040682  0.45241010  0.56583338    -0.38820
C263        C  0.32420618  0.00902521  0.58741076    -0.05480
C264        C  0.30028393  0.46061137  0.57583518    -0.02600
C265        C  0.28373661  0.46091324  0.54872002     0.02390
C266        C  0.29058729  0.50939685  0.53299074    -0.05480
C267        C  0.32124481  0.05394951  0.54324637    -0.02590
C268        C  0.33221105  0.05687717  0.57092747     0.02390
C269        C  0.28571899  0.41292808  0.59237109     0.37040
C270        C  0.33288139  0.10042777  0.52572758     0.37030
C271        C  0.34661966  0.11081594  0.58220415     0.35450
C272        C  0.25449116  0.41317310  0.53774678     0.35450
N273        N  0.35729798  0.15436346  0.59086110    -0.39370
N274        N  0.23078665  0.37478138  0.52960314    -0.39370
N275        N  0.34086668  0.13657242  0.51085402    -0.38810
N276        N  0.27304644  0.37519045  0.60551748    -0.38820
C277        C  0.02086346  0.18287769  0.53067777    -0.05480
C278        C  0.06736028  0.19450549  0.54700979    -0.02600
C279        C  0.06345384  0.18719987  0.57501318     0.02390
C280        C  0.51850431  0.15676671  0.58561670    -0.05480
C281        C  0.48639974  0.12560614  0.56750801    -0.02590
C282        C  0.48444587  0.14138609  0.54020334     0.02390
C283        C  0.11560201  0.22071012  0.53551961     0.37040
C284        C  0.46541515  0.07209613  0.57614874     0.37030
C285        C  0.45710276  0.10574437  0.52123815     0.35450
C286        C  0.10434694  0.21241215  0.59252668     0.35450
N287        N  0.43930159  0.07447609  0.50578100    -0.39370
N288        N  0.13674415  0.23278907  0.60656649    -0.39370
N289        N  0.45084056  0.02884369  0.58359707    -0.38810
N290        N  0.15395711  0.24316423  0.52676808    -0.38820
C291        C  0.49540049  0.32543607  0.58440576    -0.05480
C292        C  0.04030396  0.33085617  0.56604124    -0.02600
C293        C  0.03319549  0.31647587  0.53870401     0.02390
C294        C  0.98855216  0.28244888  0.53096977    -0.05480
C295        C  0.44261650  0.27973449  0.54856038    -0.02590
C296        C  0.44567959  0.30086111  0.57497834     0.02390
C297        C  0.09511626  0.34728302  0.57505858     0.37040
C298        C  0.39102165  0.25608355  0.53946046     0.37030
C299        C  0.39905806  0.29162984  0.59297092     0.35450
C300        C  0.07424869  0.33246442  0.51905306     0.35450
N301        N  0.36199519  0.28353656  0.60727061    -0.39370
N302        N  0.10830083  0.34426702  0.50370532    -0.39370
N303        N  0.34749688  0.24086366  0.53324364    -0.38810
N304        N  0.13925888  0.35958101  0.58200051    -0.38820
C305        C  0.23328381  0.05605422  0.02650782    -0.05480
C306        C  0.18706848  0.04014806  0.04308923    -0.02600
C307        C  0.18948984  0.04789775  0.07148148     0.02390
C308        C  0.22894263  0.08422507  0.08237015    -0.05480
C309        C  0.26194292  0.11350210  0.06449875    -0.02590
C310        C  0.27215989  0.09182525  0.03902960     0.02390
C311        C  0.13639903  0.01781528  0.03229672     0.37040
C312        C  0.28297315  0.16709827  0.07213649     0.37030
C313        C  0.32985843  0.08677675  0.03400968     0.35450
C314        C  0.15177803  0.01930963  0.08949071     0.35450
N315        N  0.37723366  0.08087044  0.03377746    -0.39370
N316        N  0.12166265  0.99820683  0.10449835    -0.39370
N317        N  0.29448500  0.21102801  0.07963038    -0.38810
N318        N  0.09316677  0.50171558  0.02593323    -0.38820
C319        C  0.27386278  0.44349218  0.02764576    -0.05480
C320        C  0.31816912  0.45317039  0.04553477    -0.02600
C321        C  0.30990893  0.45053715  0.07364780     0.02390
C322        C  0.25929461  0.42992718  0.08424828    -0.05480
C323        C  0.21769539  0.41363130  0.06592654    -0.02590
C324        C  0.22452005  0.42014038  0.03807524     0.02390
C325        C  0.37341268  0.46229178  0.03522670     0.37040
C326        C  0.16540142  0.39415118  0.07576131     0.37030
C327        C  0.17846364  0.40542518  0.02076037     0.35450
C328        C  0.35446003  0.46742748  0.09143756     0.35450
N329        N  0.14123524  0.39205324  0.00760126    -0.39370
N330        N  0.39021615  0.48078230  0.10552443    -0.39370
N331        N  0.12304335  0.38249146  0.08472636    -0.38810
N332        N  0.41857838  0.46887370  0.02803127    -0.38820
C333        C  0.24160308  0.05377642  0.97270944    -0.05480
C334        C  0.19649718  0.03896904  0.95568709    -0.02600
C335        C  0.19789516  0.05035283  0.92762911     0.02390
C336        C  0.24583398  0.07330176  0.91555600    -0.05480
C337        C  0.29137186  0.08531845  0.93218234    -0.02590
C338        C  0.28728686  0.08099705  0.96036648     0.02390
C339        C  0.14937561  0.00850114  0.96595270     0.37040
C340        C  0.34546349  0.09533246  0.92039473     0.37030
C341        C  0.33479117  0.09998230  0.97515198     0.35450
C342        C  0.15173752  0.03322265  0.91084160     0.35450
N343        N  0.37694451  0.11577597  0.98308761    -0.39370
N344        N  0.11502767  0.01902036  0.89753855    -0.39370
N345        N  0.38920312  0.09965016  0.91109851    -0.38810
N346        N  0.11016908  0.48323713  0.97165239    -0.38820
C347        C  0.28632391  0.44199547  0.97515786    -0.05480
C348        C  0.32775287  0.45860894  0.95661753    -0.02600
C349        C  0.32130222  0.44659539  0.92874546     0.02390
C350        C  0.27124419  0.42205255  0.91924672    -0.05480
C351        C  0.23326300  0.40313644  0.93866068    -0.02590
C352        C  0.24720971  0.40422746  0.96582853     0.02390
C353        C  0.37862624  0.48359315  0.96603577     0.37040
C354        C  0.17817261  0.38639359  0.93160329     0.37030
C355        C  0.24289652  0.35305340  0.98048996     0.35450
C356        C  0.36489359  0.46194294  0.91005825     0.35450
N357        N  0.24153548  0.31316498  0.99342317    -0.39370
N358        N  0.39970073  0.47401683  0.89510189    -0.39370
N359        N  0.13277440  0.37738838  0.92585216    -0.38810
N360        N  0.42054457  0.00274574  0.97241766    -0.38820
C361        C  0.05920817  0.26044201  0.02680819    -0.05480
C362        C  0.08044463  0.21182409  0.03936498    -0.02600
C363        C  0.08292235  0.20783659  0.06753133     0.02390
C364        C  0.06967194  0.25378577  0.08399412    -0.05480
C365        C  0.04504798  0.30090938  0.07181104    -0.02590
C366        C  0.04455111  0.30620310  0.04344977     0.02390
C367        C  0.09560955  0.16339508  0.02363833     0.37040
C368        C  0.01527164  0.34126014  0.08830894     0.37030
C369        C  0.02758073  0.35842222  0.03145356     0.35450
C370        C  0.08559431  0.15333097  0.07955363     0.35450
N371        N  0.01551256  0.40097585  0.02213457    -0.39370
N372        N  0.08221896  0.11068189  0.09013563    -0.39370
N373        N  0.99131420  0.37337830  0.10138662    -0.38810
N374        N  0.10923259  0.12519158  0.01099902    -0.38820
C375        C  0.44754214  0.22837784  0.02522829    -0.05480
C376        C  0.45571770  0.18166546  0.04212976    -0.02600
C377        C  0.44179134  0.18457240  0.06985948     0.02390
C378        C  0.41716660  0.23366784  0.08069414    -0.05480
C379        C  0.40106307  0.27574463  0.06252448    -0.02590
C380        C  0.41872522  0.27511628  0.03564442     0.02390
C381        C  0.47879921  0.13068240  0.03094537     0.37040
C382        C  0.35433215  0.31003875  0.06933980     0.37030
C383        C  0.40229320  0.32089879  0.01836977     0.35450
C384        C  0.45143158  0.13638270  0.08683429     0.35450
N385        N  0.38484965  0.35594496  0.00479288    -0.39370
N386        N  0.45862347  0.09776170  0.10039438    -0.39370
N387        N  0.31224205  0.33023449  0.07444657    -0.38810
N388        N  0.99534950  0.08905724  0.02209959    -0.38820
C389        C  0.08615258  0.26311940  0.91833121    -0.05480
C390        C  0.04363358  0.29947731  0.92705152    -0.02600
C391        C  0.03262076  0.30536734  0.95474856     0.02390
C392        C  0.06098524  0.27184219  0.97383614    -0.05480
C393        C  0.11066898  0.24535865  0.96521284    -0.02590
C394        C  0.12188106  0.23934025  0.93754522     0.02390
C395        C  0.01239352  0.33223323  0.90764415     0.37040
C396        C  0.15291131  0.22754806  0.98388073     0.37030
C397        C  0.17267264  0.21228049  0.92887950     0.35450
C398        C  0.99395269  0.34798595  0.96323667     0.35450
N399        N  0.21383379  0.19193538  0.92194593    -0.39370
N400        N  0.46442637  0.38478548  0.96816536    -0.39370
N401        N  0.18884562  0.21239844  0.99752257    -0.38810
N402        N  0.98797880  0.35900322  0.89228592    -0.38820
C403        C  0.44959736  0.21872392  0.97234192    -0.05480
C404        C  0.39595698  0.23911217  0.96595828    -0.02600
C405        C  0.38150768  0.24911624  0.93886191     0.02390
C406        C  0.41704565  0.23122135  0.91797316    -0.05480
C407        C  0.46241142  0.19631185  0.92459950    -0.02590
C408        C  0.47790221  0.18914190  0.95175433     0.02390
C409        C  0.35213351  0.23498748  0.98574078     0.37040
C410        C  0.49246787  0.16676904  0.90358275     0.37030
C411        C  0.52013051  0.14833643  0.95834234     0.35450
C412        C  0.32768328  0.27227583  0.93229792     0.35450
N413        N  0.05308741  0.11403891  0.96219668    -0.39370
N414        N  0.28466092  0.28995748  0.92644714    -0.39370
N415        N  0.51535817  0.14200713  0.88688203    -0.38810
N416        N  0.31797542  0.22802855  0.00177259    -0.38820
C417        C  0.24724940  0.99887942  0.24913727    -0.02630
C418        C  0.47827112  0.73303592  0.99883751     0.00420
C419        C  0.03170690  0.75469562  0.99957252     0.00420
C420        C  0.25155766  0.50134390  0.75108236    -0.02630
C421        C  0.50233073  0.75397558  0.75210059    -0.02630
C422        C  0.27267237  0.97326671  0.00097861     0.00420
C423        C  0.24851823  0.52587513  0.00011736     0.00420
N424        N  0.22949920  0.87200994  0.85439467    -0.06260
N425        N  0.21466530  0.89443522  0.87777542    -0.58380
N426        N  0.28087096  0.87919249  0.79214113    -0.05940
N427        N  0.29930959  0.92218983  0.77790031    -0.60510
N428        N  0.22591814  0.87983753  0.79244755    -0.05540
N429        N  0.20671483  0.92292693  0.77854543    -0.58360
N430        N  0.28387726  0.86989473  0.85296963    -0.05220
N431        N  0.30680010  0.89075900  0.87472952    -0.60860
C432        C  0.26366316  0.90660925  0.89018054     0.95910
C433        C  0.25265868  0.94904056  0.76923293     0.95690
N434        N  0.37739186  0.72393913  0.79074198    -0.06450
N435        N  0.42165517  0.70587469  0.77732716    -0.58960
N436        N  0.36893367  0.77345334  0.85340040    -0.04570
N437        N  0.38828247  0.78825070  0.87730961    -0.60210
N438        N  0.36831379  0.71865660  0.85152341    -0.06480
N439        N  0.38790751  0.69531801  0.87349657    -0.59230
N440        N  0.37770724  0.77919192  0.79150898    -0.04210
N441        N  0.42175859  0.79888973  0.77865202    -0.60300
Mn442      Mn  0.32850903  0.82604812  0.82181540     1.18440
C443        C  0.44897968  0.75295282  0.76955277     0.98000
C444        C  0.40076596  0.73883912  0.88936974     0.98900
N445        N  0.12533242  0.78364357  0.79221605    -0.06500
N446        N  0.08137843  0.80234226  0.77872998    -0.62810
N447        N  0.13435755  0.72863863  0.85325175    -0.05300
N448        N  0.11363782  0.71129017  0.87639334    -0.63480
N449        N  0.13498872  0.78355436  0.85277603    -0.06000
N450        N  0.11413775  0.80458113  0.87505687    -0.63070
N451        N  0.12562881  0.72830658  0.79193492    -0.04900
N452        N  0.08235057  0.70925130  0.77845457    -0.63760
Mn453      Mn  0.17811488  0.83066390  0.82233961     1.10660
C454        C  0.05494914  0.75545760  0.76995004     0.99220
C455        C  0.10039342  0.75927730  0.88950502     0.99300
N456        N  0.27541686  0.62967858  0.85078541    -0.06010
N457        N  0.29335040  0.60401261  0.87258341    -0.61380
N458        N  0.22178269  0.62670165  0.79037925    -0.05330
N459        N  0.20345378  0.58195067  0.77734242    -0.58110
N460        N  0.27675088  0.62717076  0.78976477    -0.06640
N461        N  0.29586759  0.58316058  0.77646875    -0.60950
N462        N  0.22101295  0.63221954  0.85123184    -0.05630
N463        N  0.20111831  0.60866193  0.87320357    -0.58140
Mn464      Mn  0.32506099  0.67452879  0.81990540     1.20190
Mn465      Mn  0.17488172  0.67850929  0.82108715     1.10090
Cl466      Cl  0.25155049  0.75245557  0.82015316    -0.86110
C467        C  0.24668088  0.59070026  0.88650332     0.96230
C468        C  0.25006932  0.55526194  0.76837056     0.96020
N469        N  0.22182962  0.87610002  0.20865184    -0.06260
N470        N  0.20275357  0.91945679  0.22244058    -0.58380
N471        N  0.27821561  0.86823325  0.14799193    -0.05940
N472        N  0.29957960  0.89326012  0.12685141    -0.60510
N473        N  0.22378756  0.87108922  0.14776309    -0.05540
N474        N  0.20738243  0.89867731  0.12618110    -0.58360
N475        N  0.27685351  0.87582561  0.20847726    -0.05220
N476        N  0.29531092  0.91944536  0.22233210    -0.60860
C477        C  0.24865344  0.94622848  0.23120582     0.95910
C478        C  0.25518557  0.91247925  0.11319821     0.95690
N479        N  0.36344273  0.71655630  0.14683190    -0.06450
N480        N  0.38445666  0.69422663  0.12477067    -0.58960
N481        N  0.37360505  0.77538034  0.20781540    -0.04570
N482        N  0.41651882  0.79514450  0.22142529    -0.60210
N483        N  0.37394403  0.72008157  0.20787289    -0.06480
N484        N  0.41773892  0.70202682  0.22158388    -0.59230
N485        N  0.36571325  0.77138416  0.14601270    -0.04210
N486        N  0.38853239  0.78713581  0.12296114    -0.60300
Mn487      Mn  0.32432390  0.82316228  0.17816109     1.18440
C488        C  0.40039857  0.73836790  0.10987921     0.98000
C489        C  0.44387339  0.74922777  0.23026645     0.98660
N490        N  0.12797017  0.78101103  0.14821331    -0.06500
N491        N  0.10396449  0.80030534  0.12619285    -0.62810
N492        N  0.12176688  0.72531837  0.20990155    -0.05300
N493        N  0.07813704  0.70604284  0.22309697    -0.63480
N494        N  0.12063072  0.78060451  0.20918003    -0.06000
N495        N  0.07573114  0.79905149  0.22208034    -0.63070
N496        N  0.12605071  0.72619226  0.14886409    -0.04900
N497        N  0.10091454  0.70744721  0.12713622    -0.63760
Mn498      Mn  0.17294866  0.82789560  0.17892952     1.10660
C499        C  0.08676641  0.75392734  0.11308666     0.99220
C500        C  0.04961492  0.75210358  0.23096181     0.99300
N501        N  0.27321843  0.62301138  0.20905815    -0.06010
N502        N  0.29233527  0.57880229  0.22223255    -0.61380
N503        N  0.21340523  0.63125662  0.14895039    -0.05330
N504        N  0.19049493  0.61094240  0.12699223    -0.58110
N505        N  0.26786330  0.62945042  0.14748448    -0.06640
N506        N  0.28291193  0.60792197  0.12405204    -0.60950
N507        N  0.21826732  0.62403705  0.20974988    -0.05630
N508        N  0.19992496  0.58032909  0.22352336    -0.58140
Mn509      Mn  0.32031595  0.67159300  0.17846751     1.20190
Mn510      Mn  0.16963959  0.67634657  0.18014671     1.10090
Cl511      Cl  0.24687349  0.74989738  0.18048674    -0.86110
C512        C  0.24645476  0.55249976  0.23159842     0.96230
C513        C  0.23408088  0.59599683  0.11163725     0.96020
N514        N  0.47490973  0.62864078  0.71333801    -0.06260
N515        N  0.45649171  0.67412059  0.72574762    -0.58380
N516        N  0.03127684  0.62402445  0.65399895    -0.05940
N517        N  0.05394929  0.64187153  0.63157694    -0.60510
N518        N  0.47706984  0.62172530  0.65176313    -0.05540
N519        N  0.46213258  0.63706844  0.62725281    -0.58360
N520        N  0.02979931  0.62672742  0.71446737    -0.05220
N521        N  0.04881434  0.67081077  0.72767548    -0.60860
C522        C  0.50274906  0.70003429  0.73498196     0.95910
C523        C  0.51086144  0.64982134  0.61499255     0.95690
N524        N  0.11533143  0.97870561  0.64759465    -0.06450
N525        N  0.12741594  0.96570571  0.62220428    -0.58960
N526        N  0.12724854  0.52718495  0.71215169    -0.04570
N527        N  0.16971683  0.54610830  0.72622187    -0.60210
N528        N  0.12983427  0.97210899  0.71008194    -0.06480
N529        N  0.17447252  0.95328767  0.72300289    -0.59230
N530        N  0.11731553  0.53314228  0.65089750    -0.04210
N531        N  0.13137218  0.55764526  0.62828439    -0.60300
Mn532      Mn  0.07697613  0.57774863  0.68405343     1.18440
C533        C  0.13765172  0.51589883  0.61044391     0.98000
C534        C  0.19898658  0.49996088  0.73326933     0.98660
N535        N  0.38365950  0.53290377  0.65160199    -0.06500
N536        N  0.35960094  0.55344113  0.62996014    -0.62810
N537        N  0.37623309  0.97482531  0.71178567    -0.05300
N538        N  0.33209174  0.95550393  0.72471274    -0.63480
N539        N  0.37610585  0.53021280  0.71226114    -0.06000
N540        N  0.33189681  0.54864473  0.72556026    -0.63070
N541        N  0.38358911  0.97810399  0.65092055    -0.04900
N542        N  0.35992374  0.96039113  0.62863495    -0.63760
Mn543      Mn  0.42724327  0.57921684  0.68284246     1.10660
C544        C  0.34456201  0.50779773  0.61574846     0.99220
C545        C  0.30475725  0.50182721  0.73358113     0.99300
N546        N  0.03020539  0.87427896  0.70965701    -0.06010
N547        N  0.04880073  0.83098681  0.72372147    -0.61380
N548        N  0.47346800  0.88607357  0.64908792    -0.05330
N549        N  0.45311922  0.86399559  0.62693711    -0.58110
N550        N  0.02787299  0.88519496  0.64831009    -0.06640
N551        N  0.04547855  0.86212693  0.62565027    -0.60950
N552        N  0.47521785  0.87573040  0.71052937    -0.05630
N553        N  0.45624323  0.83370670  0.72523791    -0.58140
Mn554      Mn  0.07726279  0.92640954  0.67946190     1.20190
Mn555      Mn  0.42657450  0.92782312  0.68131781     1.10090
Cl556      Cl  0.50182661  0.50244957  0.68391881    -0.86110
C557        C  0.50238635  0.80608937  0.73369568     0.96230
C558        C  0.49830127  0.84860680  0.61244278     0.96020
N559        N  0.46779830  0.87207101  0.29038009    -0.06260
N560        N  0.44898851  0.82893219  0.27627506    -0.58380
N561        N  0.02486083  0.88293648  0.35106532    -0.05940
N562        N  0.04504269  0.86073297  0.37323527    -0.60510
N563        N  0.47042828  0.88254540  0.35175479    -0.05540
N564        N  0.45266116  0.85971822  0.37437327    -0.58360
N565        N  0.02279593  0.87267100  0.28972104    -0.05220
N566        N  0.04153627  0.82997300  0.27527738    -0.60860
C567        C  0.49534977  0.80303525  0.26661587     0.95910
C568        C  0.99974988  0.84578922  0.38763815     0.95690
N569        N  0.11501008  0.52899134  0.34877069    -0.06450
N570        N  0.13879838  0.54957162  0.37042358    -0.58960
N571        N  0.12262213  0.97118991  0.28842346    -0.04570
N572        N  0.16690014  0.95203798  0.27529527    -0.60210
N573        N  0.12242463  0.52653119  0.28817347    -0.06480
N574        N  0.16642823  0.54510383  0.27494583    -0.59230
N575        N  0.11511691  0.97420701  0.34951712    -0.04210
N576        N  0.13850497  0.95657855  0.37193666    -0.60300
Mn577      Mn  0.07196958  0.92432955  0.31895473     1.18440
C578        C  0.15365516  0.50405751  0.38479077     0.98000
C579        C  0.19388553  0.49846856  0.26662855     0.98660
N580        N  0.38302323  0.97698542  0.35265475    -0.06500
N581        N  0.37096563  0.96395557  0.37801534    -0.62810
N582        N  0.37131035  0.52581965  0.28809334    -0.05300
N583        N  0.32876293  0.54475264  0.27389307    -0.63480
N584        N  0.36891920  0.97083339  0.29024407    -0.06000
N585        N  0.32440442  0.95207516  0.27741021    -0.63070
N586        N  0.38107294  0.53144786  0.34947480    -0.04900
N587        N  0.36712263  0.55595745  0.37215728    -0.63760
Mn588      Mn  0.42116500  0.92452900  0.32069872     1.10660
C589        C  0.36082368  0.51417552  0.38989763     0.99220
C590        C  0.29970295  0.49853187  0.26701478     0.99300
N591        N  0.02414982  0.62533440  0.28710447    -0.06010
N592        N  0.04282811  0.67019657  0.27440971    -0.61380
N593        N  0.46727561  0.62151008  0.34663936    -0.05330
N594        N  0.44458988  0.63952978  0.36909296    -0.58110
N595        N  0.02149367  0.61871241  0.34885739    -0.06640
N596        N  0.03639236  0.63387744  0.37340768    -0.60950
N597        N  0.46926036  0.62432465  0.28622684    -0.05630
N598        N  0.45044465  0.66864973  0.27312496    -0.58140
Mn599      Mn  0.07143090  0.57568135  0.31763077     1.20190
Mn600      Mn  0.42160427  0.57583380  0.31645272     1.10090
Cl601      Cl  0.49671424  0.49986253  0.31713297    -0.86110
C602        C  0.49658080  0.69685731  0.26544906     0.96230
C603        C  0.98765160  0.64707594  0.38569807     0.96020
C604        C  0.99979910  0.73117227  0.51401331     0.00420
C605        C  0.99867229  0.73093664  0.48647031     0.00420
C606        C  0.24538710  0.02309198  0.51383039     0.00420
C607        C  0.25314438  0.02261310  0.48658040     0.00420
C608        C  0.99619685  0.75058949  0.24829425    -0.02630
C609        C  0.98001807  0.65478274  0.41508053    -0.05480
C610        C  0.43498274  0.68573972  0.42559020    -0.02600
C611        C  0.43122261  0.69392120  0.45356180     0.02390
C612        C  0.97782041  0.68248849  0.46991178    -0.05480
C613        C  0.01438533  0.64062331  0.46055260    -0.02590
C614        C  0.01236141  0.62402649  0.43333848     0.02390
C615        C  0.39377711  0.71055077  0.40801943     0.37040
C616        C  0.04229833  0.60574364  0.47970092     0.37030
C617        C  0.03340443  0.57010625  0.42501306     0.35450
C618        C  0.38279146  0.72039101  0.46501010     0.35450
N619        N  0.04797850  0.52648324  0.41783717    -0.39370
N620        N  0.34426489  0.74294148  0.47377775    -0.39370
N621        N  0.06070832  0.57531301  0.49541190    -0.38810
N622        N  0.36110038  0.73061452  0.39394784    -0.38820
C623        C  0.00248557  0.82300804  0.41571517    -0.05480
C624        C  0.05224373  0.79827081  0.42521268    -0.02600
C625        C  0.05566311  0.77844793  0.45181568     0.02390
C626        C  0.00975019  0.78183597  0.46940154    -0.05480
C627        C  0.46485419  0.81570226  0.46148661    -0.02590
C628        C  0.45763881  0.82931800  0.43407052     0.02390
C629        C  0.09851023  0.78751276  0.40713150     0.37040
C630        C  0.42365321  0.83214728  0.48107994     0.37030
C631        C  0.40279817  0.84595475  0.42498801     0.35450
C632        C  0.10778627  0.75602509  0.46116986     0.35450
N633        N  0.35862028  0.85844166  0.41801838    -0.39370
N634        N  0.15178089  0.74213973  0.46754749    -0.39370
N635        N  0.38955842  0.84414880  0.49644486    -0.38810
N636        N  0.13519057  0.77821170  0.39271163    -0.38820
C637        C  0.17377173  0.00594433  0.41318926    -0.05480
C638        C  0.19726952  0.95765343  0.42525386    -0.02600
C639        C  0.21450042  0.95922293  0.45227311     0.02390
C640        C  0.20799979  0.00855359  0.46751657    -0.05480
C641        C  0.17736887  0.55294842  0.45690678    -0.02590
C642        C  0.16623573  0.55472246  0.42923291     0.02390
C643        C  0.21049407  0.90852536  0.40931908     0.37040
C644        C  0.16594222  0.60030997  0.47403145     0.37030
C645        C  0.15178899  0.60834246  0.41755015     0.35450
C646        C  0.24373873  0.91169655  0.46366431     0.35450
N647        N  0.14106662  0.65166810  0.40859707    -0.39370
N648        N  0.26737208  0.87341637  0.47216549    -0.39370
N649        N  0.15821864  0.63706114  0.48867720    -0.38810
N650        N  0.22210143  0.86952509  0.39668727    -0.38820
C651        C  0.30569610  0.03944240  0.47181363    -0.05480
C652        C  0.29977243  0.08231334  0.45241476    -0.02600
C653        C  0.31299781  0.07158921  0.42541336     0.02390
C654        C  0.34634876  0.02490201  0.41877094    -0.05480
C655        C  0.37066748  0.49512291  0.44038512    -0.02590
C656        C  0.34780111  0.49992090  0.46669001     0.02390
C657        C  0.27558597  0.13560093  0.45934352     0.37040
C658        C  0.42417105  0.46912242  0.43674735     0.37030
C659        C  0.37393428  0.47316663  0.48935000     0.35450
C660        C  0.29013139  0.10787900  0.40477806     0.35450
N661        N  0.39633431  0.45533757  0.50804609    -0.39370
N662        N  0.27156839  0.13652154  0.38831975    -0.39370
N663        N  0.46824636  0.45035894  0.43458954    -0.38810
N664        N  0.25569420  0.17879794  0.46353263    -0.38820
C665        C  0.15188620  0.52658548  0.58155472    -0.05480
C666        C  0.12778449  0.99664265  0.55998773    -0.02600
C667        C  0.15073146  0.00093769  0.53370018     0.02390
C668        C  0.19263100  0.04024748  0.52851097    -0.05480
C669        C  0.19827043  0.58338723  0.54781551    -0.02590
C670        C  0.18493586  0.57311747  0.57483918     0.02390
C671        C  0.07439713  0.97092517  0.56364962     0.37040
C672        C  0.22286405  0.63618318  0.54080089     0.37030
C673        C  0.20762303  0.60951370  0.59542530     0.35450
C674        C  0.12494705  0.97366095  0.51113214     0.35450
N675        N  0.22612957  0.63823730  0.61182836    -0.39370
N676        N  0.10268498  0.95549107  0.49250198    -0.39370
N677        N  0.24313988  0.67893233  0.53647751    -0.38810
N678        N  0.03040037  0.95241044  0.56582897    -0.38820
C679        C  0.32420577  0.50903164  0.58741025    -0.05480
C680        C  0.30028342  0.96060616  0.57583513    -0.02600
C681        C  0.28373449  0.96091044  0.54872019     0.02390
C682        C  0.29058572  0.00939494  0.53299150    -0.05480
C683        C  0.32124629  0.55395219  0.54324482    -0.02590
C684        C  0.33221234  0.55688189  0.57092589     0.02390
C685        C  0.28571965  0.91292166  0.59237052     0.37040
C686        C  0.33288136  0.60042986  0.52572538     0.37030
C687        C  0.34662207  0.61082138  0.58220138     0.35450
C688        C  0.25448815  0.91317135  0.53774649     0.35450
N689        N  0.35730146  0.65436950  0.59085729    -0.39370
N690        N  0.23078306  0.87478034  0.52960246    -0.39370
N691        N  0.34086520  0.63657410  0.51085141    -0.38810
N692        N  0.27304823  0.87518307  0.60551653    -0.38820
C693        C  0.02086088  0.68287777  0.53067400    -0.05480
C694        C  0.06735853  0.69450700  0.54700521    -0.02600
C695        C  0.06345446  0.68720108  0.57500862     0.02390
C696        C  0.51850798  0.65676822  0.58561267    -0.05480
C697        C  0.48640231  0.62560778  0.56750446    -0.02590
C698        C  0.48444832  0.64138710  0.54019979     0.02390
C699        C  0.11559962  0.72071107  0.53551418     0.37040
C700        C  0.46541638  0.57209866  0.57614581     0.37030
C701        C  0.45710300  0.60574626  0.52123496     0.35450
C702        C  0.10434951  0.71241223  0.59252142     0.35450
N703        N  0.43930065  0.57447867  0.50577782    -0.39370
N704        N  0.13674844  0.73278799  0.60656068    -0.39370
N705        N  0.45084069  0.52884712  0.58359490    -0.38810
N706        N  0.15395498  0.74316405  0.52676222    -0.38820
C707        C  0.49541643  0.82543196  0.58440242    -0.05480
C708        C  0.04028877  0.83085474  0.56603857    -0.02600
C709        C  0.03318423  0.81647436  0.53870132     0.02390
C710        C  0.98854269  0.78244653  0.53096599    -0.05480
C711        C  0.44262649  0.77973505  0.54855778    -0.02590
C712        C  0.44569340  0.80085910  0.57497595     0.02390
C713        C  0.09510040  0.84728091  0.57505736     0.37040
C714        C  0.39103061  0.75608392  0.53945901     0.37030
C715        C  0.39907291  0.79162816  0.59296930     0.35450
C716        C  0.07423973  0.83246330  0.51905156     0.35450
N717        N  0.36201061  0.78353586  0.60726948    -0.39370
N718        N  0.10829337  0.84426582  0.50370458    -0.39370
N719        N  0.34750555  0.74086307  0.53324315    -0.38810
N720        N  0.13924265  0.85957807  0.58200024    -0.38820
C721        C  0.23327485  0.55601891  0.02653482    -0.05480
C722        C  0.18706111  0.54011347  0.04311623    -0.02600
C723        C  0.18948189  0.54787538  0.07150801     0.02390
C724        C  0.22893904  0.58420460  0.08239351    -0.05480
C725        C  0.26195617  0.61345880  0.06452103    -0.02590
C726        C  0.27217570  0.59175926  0.03905847     0.02390
C727        C  0.13641648  0.51772414  0.03232261     0.37040
C728        C  0.28298716  0.66706350  0.07214435     0.37030
C729        C  0.32987743  0.58664371  0.03405104     0.35450
C730        C  0.15178118  0.51928174  0.08952057     0.35450
N731        N  0.37724910  0.58069740  0.03380627    -0.39370
N732        N  0.12167757  0.49817128  0.10453127    -0.39370
N733        N  0.29450199  0.71100728  0.07961846    -0.38810
N734        N  0.09312508  0.00185325  0.02591814    -0.38820
C735        C  0.27383534  0.94350816  0.02765295    -0.05480
C736        C  0.31813268  0.95323120  0.04554687    -0.02600
C737        C  0.30987521  0.95058129  0.07366049     0.02390
C738        C  0.25927616  0.92994171  0.08426077    -0.05480
C739        C  0.21767966  0.91363959  0.06594004    -0.02590
C740        C  0.22449477  0.92015884  0.03808815     0.02390
C741        C  0.37337621  0.96241624  0.03525195     0.37040
C742        C  0.16539194  0.89415074  0.07577907     0.37030
C743        C  0.17840592  0.90550822  0.02078319     0.35450
C744        C  0.35441575  0.96749036  0.09145327     0.35450
N745        N  0.14113635  0.89221498  0.00763296    -0.39370
N746        N  0.39016425  0.98085890  0.10554171    -0.39370
N747        N  0.12304072  0.88248746  0.08475063    -0.38810
N748        N  0.41855936  0.96903149  0.02808894    -0.38820
C749        C  0.24150308  0.55379006  0.97273785    -0.05480
C750        C  0.19643240  0.53891611  0.95570685    -0.02600
C751        C  0.19780955  0.55036416  0.92765396     0.02390
C752        C  0.24572133  0.57339499  0.91559138    -0.05480
C753        C  0.29121925  0.58549272  0.93223091    -0.02590
C754        C  0.28711921  0.58114694  0.96041264     0.02390
C755        C  0.14936625  0.50834399  0.96595980     0.37040
C756        C  0.34530475  0.59559831  0.92046083     0.37030
C757        C  0.33455508  0.60024191  0.97521645     0.35450
C758        C  0.15166417  0.53322535  0.91086131     0.35450
N759        N  0.37665003  0.61613143  0.98317875    -0.39370
N760        N  0.11495755  0.51902482  0.89755575    -0.39370
N761        N  0.38904916  0.59996775  0.91117773    -0.38810
N762        N  0.11013765  0.98346378  0.97165049    -0.38820
C763        C  0.28621890  0.94192714  0.97515214    -0.05480
C764        C  0.32774475  0.95840882  0.95663538    -0.02600
C765        C  0.32132190  0.94643790  0.92875826     0.02390
C766        C  0.27119360  0.92209854  0.91922168    -0.05480
C767        C  0.23306933  0.90334253  0.93860892    -0.02590
C768        C  0.24696185  0.90433886  0.96578601     0.02390
C769        C  0.37865338  0.98328163  0.96607499     0.37040
C770        C  0.17793286  0.88678386  0.93151379     0.37030
C771        C  0.24249527  0.85311793  0.98039466     0.35450
C772        C  0.36503067  0.96163376  0.91010567     0.35450
N773        N  0.24099561  0.81316517  0.99327699    -0.39370
N774        N  0.39993528  0.97358844  0.89518014    -0.39370
N775        N  0.13252061  0.87791011  0.92573288    -0.38810
N776        N  0.42048707  0.50312844  0.97237500    -0.38820
C777        C  0.05927606  0.76037593  0.02682387    -0.05480
C778        C  0.08048882  0.71175583  0.03938841    -0.02600
C779        C  0.08295340  0.70778096  0.06755544     0.02390
C780        C  0.06970643  0.75374178  0.08401081    -0.05480
C781        C  0.04509154  0.80086017  0.07182147    -0.02590
C782        C  0.04461254  0.80614503  0.04346040     0.02390
C783        C  0.09561056  0.66330328  0.02367012     0.37040
C784        C  0.01529675  0.84120997  0.08831260     0.37030
C785        C  0.02763660  0.85836109  0.03146328     0.35450
C786        C  0.08559876  0.65328075  0.07958570     0.35450
N787        N  0.01556223  0.90092171  0.02215343    -0.39370
N788        N  0.08220248  0.61064076  0.09017483    -0.39370
N789        N  0.99132543  0.87332837  0.10138421    -0.38810
N790        N  0.10917994  0.62507176  0.01103727    -0.38820
C791        C  0.44752692  0.72843084  0.02523419    -0.05480
C792        C  0.45566793  0.68169138  0.04212291    -0.02600
C793        C  0.44174650  0.68457601  0.06985431     0.02390
C794        C  0.41715163  0.73367425  0.08070171    -0.05480
C795        C  0.40106760  0.77577582  0.06254249    -0.02590
C796        C  0.41874467  0.77517740  0.03566534     0.02390
C797        C  0.47873246  0.63071285  0.03092666     0.37040
C798        C  0.35433356  0.81006416  0.06936027     0.37030
C799        C  0.40237446  0.82101552  0.01841218     0.35450
C800        C  0.45136069  0.63636350  0.08681735     0.35450
N801        N  0.38497229  0.85610788  0.00485073    -0.39370
N802        N  0.45853221  0.59772467  0.10036818    -0.39370
N803        N  0.31224266  0.83025694  0.07446804    -0.38810
N804        N  0.99532820  0.58898722  0.02210377    -0.38820
C805        C  0.08625431  0.76321489  0.91834703    -0.05480
C806        C  0.04371568  0.79952167  0.92708460    -0.02600
C807        C  0.03272171  0.80536895  0.95478335     0.02390
C808        C  0.06108333  0.77179704  0.97385404    -0.05480
C809        C  0.11077365  0.74532622  0.96521600    -0.02590
C810        C  0.12202313  0.73944274  0.93754377     0.02390
C811        C  0.01240723  0.83224582  0.90768985     0.37040
C812        C  0.15296033  0.72732282  0.98387166     0.37030
C813        C  0.17286746  0.71250628  0.92885386     0.35450
C814        C  0.99404397  0.84796770  0.96328463     0.35450
N815        N  0.21406349  0.69226536  0.92189572    -0.39370
N816        N  0.46449826  0.88478069  0.96817445    -0.39370
N817        N  0.18888249  0.71204833  0.99749051    -0.38810
N818        N  0.98793686  0.85898623  0.89234052    -0.38820
C819        C  0.44960810  0.71880463  0.97234651    -0.05480
C820        C  0.39603192  0.73932018  0.96593055    -0.02600
C821        C  0.38166194  0.74932732  0.93882536     0.02390
C822        C  0.41720455  0.73133415  0.91795789    -0.05480
C823        C  0.46249151  0.69634354  0.92461394    -0.02590
C824        C  0.47790483  0.68915925  0.95177768     0.02390
C825        C  0.35215746  0.73535575  0.98569352     0.37040
C826        C  0.49254083  0.66672382  0.90361894     0.37030
C827        C  0.52005334  0.64828921  0.95839163     0.35450
C828        C  0.32789411  0.77258485  0.93223201     0.35450
N829        N  0.05325149  0.61410685  0.96216163    -0.39370
N830        N  0.28491035  0.79033316  0.92636182    -0.39370
N831        N  0.51542855  0.64190152  0.88693799    -0.38810
N832        N  0.31794538  0.72853189  0.00171185    -0.38820
C833        C  0.74724751  0.49886570  0.24913428    -0.02630
C834        C  0.97826679  0.23300769  0.99882932     0.00420
C835        C  0.53161790  0.25475371  0.99956045     0.00420
C836        C  0.75155577  0.00127972  0.75107022    -0.02630
C837        C  0.00234917  0.25398569  0.75209652    -0.02630
C838        C  0.77274587  0.47326795  0.00098572     0.00420
C839        C  0.74860594  0.02583106  0.00009764     0.00420
N840        N  0.72950385  0.37189733  0.85443683    -0.06260
N841        N  0.71468632  0.39431780  0.87782272    -0.58380
N842        N  0.78087210  0.37930970  0.79218124    -0.05940
N843        N  0.79931730  0.42227897  0.77792394    -0.60510
N844        N  0.72591112  0.37996459  0.79248675    -0.05540
N845        N  0.70671252  0.42303261  0.77857030    -0.58360
N846        N  0.78386488  0.36976550  0.85300635    -0.05220
N847        N  0.80681472  0.39061751  0.87476226    -0.60860
C848        C  0.76369748  0.40647240  0.89022148     0.95910
C849        C  0.75266415  0.44911799  0.76924702     0.95690
N850        N  0.87743006  0.22395081  0.79074606    -0.06450
N851        N  0.92167544  0.20588861  0.77731890    -0.58960
N852        N  0.86875224  0.27341519  0.85342607    -0.04570
N853        N  0.88809097  0.28819583  0.87733995    -0.60210
N854        N  0.86814490  0.21863557  0.85153317    -0.06480
N855        N  0.88773180  0.19527280  0.87350325    -0.59230
N856        N  0.87776967  0.27921126  0.79153497    -0.04210
N857        N  0.92182320  0.29890860  0.77867942    -0.60300
Mn858      Mn  0.82846734  0.32603390  0.82184014     1.18440
C859        C  0.94901388  0.25296847  0.76955806     0.98000
C860        C  0.90057125  0.23877691  0.88939055     0.98900
N861        N  0.62525279  0.28363962  0.79224963    -0.06500
N862        N  0.58132084  0.30233870  0.77874803    -0.62810
N863        N  0.63448396  0.22860204  0.85327434    -0.05300
N864        N  0.61365434  0.21124106  0.87639086    -0.63480
N865        N  0.63511212  0.28350897  0.85280155    -0.06000
N866        N  0.61416037  0.30452679  0.87506361    -0.63070
N867        N  0.62553440  0.22828667  0.79197583    -0.04900
N868        N  0.58226863  0.20923887  0.77848457    -0.63760
Mn869      Mn  0.67812595  0.33068416  0.82235780     1.10660
C870        C  0.55489368  0.25545224  0.76996637     0.99220
C871        C  0.60035320  0.25921932  0.88949576     0.99300
N872        N  0.77544343  0.12972911  0.85077688    -0.06010
N873        N  0.79341607  0.10401408  0.87255434    -0.61380
N874        N  0.72176471  0.12657624  0.79039461    -0.05330
N875        N  0.70344086  0.08182218  0.77736084    -0.58110
N876        N  0.77673958  0.12707532  0.78976077    -0.06640
N877        N  0.79586200  0.08308248  0.77645669    -0.60950
N878        N  0.72105700  0.13226663  0.85124283    -0.05630
N879        N  0.70118856  0.10865026  0.87320507    -0.58140
Mn880      Mn  0.82502113  0.17452694  0.81988554     1.20190
Mn881      Mn  0.67490093  0.17845507  0.82110556     1.10090
Cl882      Cl  0.75145615  0.25248011  0.81953208    -0.86110
C883        C  0.74676935  0.09066304  0.88648135     0.96230
C884        C  0.75006285  0.05516851  0.76837121     0.96020
N885        N  0.72182137  0.37609172  0.20864541    -0.06260
N886        N  0.70274726  0.41944814  0.22243521    -0.58380
N887        N  0.77821269  0.36823488  0.14798837    -0.05940
N888        N  0.79958376  0.39326611  0.12685129    -0.60510
N889        N  0.72378507  0.37109468  0.14775685    -0.05540
N890        N  0.70738692  0.39869042  0.12617589    -0.58360
N891        N  0.77684517  0.37581365  0.20847231    -0.05220
N892        N  0.79530458  0.41942964  0.22232916    -0.60860
C893        C  0.74864851  0.44621479  0.23120274     0.95910
C894        C  0.75519512  0.41249262  0.11319727     0.95690
N895        N  0.86343770  0.21655987  0.14682104    -0.06450
N896        N  0.88445679  0.19423361  0.12476052    -0.58960
N897        N  0.87359228  0.27537188  0.20780749    -0.04570
N898        N  0.91650296  0.29513736  0.22141914    -0.60210
N899        N  0.87393459  0.22007321  0.20786242    -0.06480
N900        N  0.91773043  0.20201985  0.22157369    -0.59230
N901        N  0.86570750  0.27138775  0.14600377    -0.04210
N902        N  0.88853063  0.28714325  0.12295355    -0.60300
Mn903      Mn  0.82431507  0.32315705  0.17815456     1.18440
C904        C  0.90040141  0.23837674  0.10987131     0.98000
C905        C  0.94386064  0.24922200  0.23025901     0.98660
N906        N  0.62795993  0.28102352  0.14819770    -0.06500
N907        N  0.60394931  0.30032925  0.12618048    -0.62810
N908        N  0.62175135  0.22531137  0.20988230    -0.05300
N909        N  0.57812369  0.20603798  0.22308058    -0.63480
N910        N  0.62062272  0.28059811  0.20916593    -0.06000
N911        N  0.57573235  0.29904780  0.22207271    -0.63070
N912        N  0.62603833  0.22620424  0.14884301    -0.04900
N913        N  0.60089478  0.20747130  0.12711443    -0.63760
Mn914      Mn  0.67294110  0.32789569  0.17891879     1.10660
C915        C  0.58674552  0.25395874  0.11306982     0.99220
C916        C  0.54961263  0.25210117  0.23095272     0.99300
N917        N  0.77320602  0.12300461  0.20903929    -0.06010
N918        N  0.79232652  0.07880571  0.22222039    -0.61380
N919        N  0.71339909  0.13126023  0.14892316    -0.05330
N920        N  0.69049688  0.11094889  0.12696163    -0.58110
N921        N  0.76785813  0.12945209  0.14746205    -0.06640
N922        N  0.78291427  0.10792486  0.12403012    -0.60950
N923        N  0.71825459  0.12402424  0.20972778    -0.05630
N924        N  0.69991543  0.08032066  0.22350615    -0.58140
Mn925      Mn  0.82030702  0.17158979  0.17845194     1.20190
Mn926      Mn  0.66962613  0.17634292  0.18012365     1.10090
Cl927      Cl  0.74686244  0.24989288  0.18047226    -0.86110
C928        C  0.74644808  0.05250168  0.23158726     0.96230
C929        C  0.73408832  0.09600210  0.11160953     0.96020
N930        N  0.97491406  0.12863825  0.71334072    -0.06260
N931        N  0.95650021  0.17412495  0.72574683    -0.58380
N932        N  0.53126925  0.12401705  0.65400394    -0.05940
N933        N  0.55394239  0.14186420  0.63158206    -0.60510
N934        N  0.97707201  0.12172464  0.65176642    -0.05540
N935        N  0.96213385  0.13706937  0.62725645    -0.58360
N936        N  0.52979046  0.12671945  0.71447268    -0.05220
N937        N  0.54880061  0.17080822  0.72767950    -0.60860
C938        C  0.00275978  0.20003896  0.73497939     0.95910
C939        C  0.01086207  0.14982377  0.61499600     0.95690
N940        N  0.61532678  0.47870416  0.64759654    -0.06450
N941        N  0.62741281  0.46570146  0.62220655    -0.58960
N942        N  0.62724221  0.02716070  0.71215137    -0.04570
N943        N  0.66972202  0.04607253  0.72621708    -0.60210
N944        N  0.62983461  0.47211851  0.71008454    -0.06480
N945        N  0.67447941  0.45330597  0.72300407    -0.59230
N946        N  0.61730418  0.03313122  0.65089932    -0.04210
N947        N  0.63136451  0.05763608  0.62828717    -0.60300
Mn948      Mn  0.57696836  0.07773669  0.68405715     1.18440
C949        C  0.63764389  0.01589123  0.61044574     0.98000
C950        C  0.69898577  0.99991659  0.73325858     0.98660
N951        N  0.88366518  0.03289813  0.65160226    -0.06500
N952        N  0.85960310  0.05343704  0.62996166    -0.62810
N953        N  0.87624002  0.47484063  0.71178534    -0.05300
N954        N  0.83209507  0.45552553  0.72471246    -0.63480
N955        N  0.87610799  0.03019144  0.71225925    -0.06000
N956        N  0.83188759  0.04860967  0.72555396    -0.63070
N957        N  0.88359782  0.47811199  0.65091998    -0.04900
N958        N  0.85993160  0.46039708  0.62863493    -0.63760
Mn959      Mn  0.92724607  0.07921001  0.68284429     1.10660
C960        C  0.84456569  0.00779452  0.61574892     0.99220
C961        C  0.80475742  0.00178318  0.73357133     0.99300
N962        N  0.53019587  0.37428421  0.70966295    -0.06010
N963        N  0.54878635  0.33098634  0.72372570    -0.61380
N964        N  0.97348018  0.38608341  0.64909005    -0.05330
N965        N  0.95313069  0.36400377  0.62693978    -0.58110
N966        N  0.52786406  0.38519581  0.64831593    -0.06640
N967        N  0.54546997  0.36212658  0.62565642    -0.60950
N968        N  0.97522873  0.37574508  0.71053065    -0.05630
N969        N  0.95625521  0.33371688  0.72523682    -0.58140
Mn970      Mn  0.57725753  0.42641236  0.67946638     1.20190
Mn971      Mn  0.92658383  0.42783463  0.68131861     1.10090
Cl972      Cl  0.00183232  0.00244519  0.68391751    -0.86110
C973        C  0.00239947  0.30609867  0.73369212     0.96230
C974        C  0.99831180  0.34861488  0.61244496     0.96020
N975        N  0.96779046  0.37206154  0.29037803    -0.06260
N976        N  0.94897913  0.32892764  0.27626993    -0.58380
N977        N  0.52486747  0.38292553  0.35106688    -0.05940
N978        N  0.54504905  0.36072412  0.37323746    -0.60510
N979        N  0.97042110  0.38253351  0.35175398    -0.05540
N980        N  0.95265447  0.35970904  0.37437325    -0.58360
N981        N  0.52280247  0.37266185  0.28972126    -0.05220
N982        N  0.54154229  0.32996852  0.27527411    -0.60860
C983        C  0.99533955  0.30303253  0.26660876     0.95910
C984        C  0.49975607  0.34578219  0.38764079     0.95690
N985        N  0.61501767  0.02900376  0.34877125    -0.06450
N986        N  0.63880374  0.04958290  0.37042510    -0.58960
N987        N  0.62262587  0.47117850  0.28842391    -0.04570
N988        N  0.66690145  0.45202578  0.27529420    -0.60210
N989        N  0.62243073  0.02654305  0.28817254    -0.06480
N990        N  0.66643115  0.04511472  0.27494178    -0.59230
N991        N  0.61512276  0.47419678  0.34951782    -0.04210
N992        N  0.63850984  0.45656923  0.37193775    -0.60300
Mn993      Mn  0.57197564  0.42431862  0.31895567     1.18440
C994        C  0.65365883  0.00406779  0.38479216     0.98000
C995        C  0.69388511  0.99847842  0.26662294     0.98660
N996        N  0.88301689  0.47697464  0.35265376    -0.06500
N997        N  0.87096063  0.46394598  0.37801467    -0.62810
N998        N  0.87130349  0.02583220  0.28809139    -0.05300
N999        N  0.82875885  0.04476493  0.27388863    -0.63480
N1000       N  0.86891463  0.47082172  0.29024267    -0.06000
N1001       N  0.82440184  0.45206239  0.27740763    -0.63070
N1002       N  0.88106517  0.03145772  0.34947427    -0.04900
N1003       N  0.86711585  0.05596598  0.37215730    -0.63760
Mn1004     Mn  0.92115840  0.42451774  0.32069765     1.10660
C1005       C  0.86081836  0.01418307  0.38989735     0.99220
C1006       C  0.79970132  0.99854339  0.26700895     0.99300
N1007       N  0.52415519  0.12534414  0.28710385    -0.06010
N1008       N  0.54283260  0.17020264  0.27440568    -0.61380
N1009       N  0.96726897  0.12151940  0.34663978    -0.05330
N1010       N  0.94458381  0.13953625  0.36909416    -0.58110
N1011       N  0.52150028  0.11872370  0.34885830    -0.06640
N1012       N  0.53639823  0.13388542  0.37340927    -0.60950
N1013       N  0.96925328  0.12433227  0.28622580    -0.05630
N1014       N  0.95043649  0.16865204  0.27312032    -0.58140
Mn1015     Mn  0.57143781  0.07569343  0.31763088     1.20190
Mn1016     Mn  0.92159700  0.07584433  0.31645219     1.10090
Cl1017     Cl  0.99670778  0.99987307  0.31713208    -0.86110
C1018       C  0.99657215  0.19685712  0.26544194     0.96230
C1019       C  0.48765720  0.14708260  0.38569988     0.96020
C1020       C  0.49979851  0.23116924  0.51401764     0.00420
C1021       C  0.49867397  0.23093413  0.48647433     0.00420
C1022       C  0.74539039  0.52308988  0.51383070     0.00420
C1023       C  0.75314683  0.52260982  0.48658065     0.00420
C1024       C  0.49619868  0.25059090  0.24828831    -0.02630
C1025       C  0.48002236  0.15478617  0.41508272    -0.05480
C1026       C  0.93497786  0.18574104  0.42559303    -0.02600
C1027       C  0.93121942  0.19392235  0.45356480     0.02390
C1028       C  0.47782233  0.18248656  0.46991490    -0.05480
C1029       C  0.51438720  0.14062183  0.46055506    -0.02590
C1030       C  0.51236447  0.12402780  0.43334037     0.02390
C1031       C  0.89377052  0.21055125  0.40802297     0.37040
C1032       C  0.54229716  0.10573878  0.47970300     0.37030
C1033       C  0.53340582  0.07010756  0.42501392     0.35450
C1034       C  0.88278853  0.22039089  0.46501400     0.35450
N1035       N  0.54797859  0.02648478  0.41783705    -0.39370
N1036       N  0.84426239  0.24294028  0.47378273    -0.39370
N1037       N  0.56070520  0.07530564  0.49541339    -0.38810
N1038       N  0.86109263  0.23061450  0.39395185    -0.38820
C1039       C  0.50249106  0.32300376  0.41571855    -0.05480
C1040       C  0.55224886  0.29826742  0.42521703    -0.02600
C1041       C  0.55566695  0.27844562  0.45182034     0.02390
C1042       C  0.50975316  0.28183373  0.46940568    -0.05480
C1043       C  0.96485096  0.31570262  0.46148806    -0.02590
C1044       C  0.95763450  0.32931557  0.43407167     0.02390
C1045       C  0.59851645  0.28750939  0.40713655     0.37040
C1046       C  0.92365022  0.33214794  0.48108147     0.37030
C1047       C  0.90279366  0.34595177  0.42498927     0.35450
C1048       C  0.60778984  0.25602432  0.46117556     0.35450
N1049       N  0.85861564  0.35843843  0.41801975    -0.39370
N1050       N  0.65178412  0.24214028  0.46755432    -0.39370
N1051       N  0.88955597  0.34414906  0.49644676    -0.38810
N1052       N  0.63519743  0.27820850  0.39271703    -0.38820
C1053       C  0.67377463  0.50593694  0.41319017    -0.05480
C1054       C  0.69727264  0.45764674  0.42525524    -0.02600
C1055       C  0.71450296  0.45921742  0.45227450     0.02390
C1056       C  0.70800201  0.50854878  0.46751737    -0.05480
C1057       C  0.67736729  0.05295096  0.45691001    -0.02590
C1058       C  0.66623512  0.05472780  0.42923605     0.02390
C1059       C  0.71049862  0.40851850  0.40932085     0.37040
C1060       C  0.66594004  0.10031054  0.47403590     0.37030
C1061       C  0.65178804  0.10834860  0.41755444     0.35450
C1062       C  0.74374140  0.41169173  0.46366625     0.35450
N1063       N  0.64106533  0.15167491  0.40860225    -0.39370
N1064       N  0.76737481  0.37341196  0.47216779    -0.39370
N1065       N  0.65821579  0.13705963  0.48868279    -0.38810
N1066       N  0.72210728  0.36951827  0.39668929    -0.38820
C1067       C  0.80569799  0.53943891  0.47181320    -0.05480
C1068       C  0.79977332  0.58230890  0.45241389    -0.02600
C1069       C  0.81299697  0.57158337  0.42541240     0.02390
C1070       C  0.84634645  0.52489504  0.41876998    -0.05480
C1071       C  0.87066487  0.99512697  0.44038470    -0.02590
C1072       C  0.84780010  0.99992346  0.46669008     0.02390
C1073       C  0.77558742  0.63559688  0.45934237     0.37040
C1074       C  0.92416787  0.96912602  0.43674576     0.37030
C1075       C  0.87393545  0.97316903  0.48934946     0.35450
C1076       C  0.79013100  0.60787346  0.40477708     0.35450
N1077       N  0.89633711  0.95533973  0.50804505    -0.39370
N1078       N  0.77156860  0.63651633  0.38831875    -0.39370
N1079       N  0.96824281  0.95036211  0.43458695    -0.38810
N1080       N  0.75569588  0.67879405  0.46353131    -0.38820
C1081       C  0.65188192  0.02657969  0.58155710    -0.05480
C1082       C  0.62778640  0.49663694  0.55998805    -0.02600
C1083       C  0.65073450  0.50093309  0.53370066     0.02390
C1084       C  0.69263417  0.54024333  0.52851208    -0.05480
C1085       C  0.69827077  0.08338261  0.54781983    -0.02590
C1086       C  0.68493351  0.07311112  0.57484306     0.02390
C1087       C  0.57439816  0.47092071  0.56364886     0.37040
C1088       C  0.72286452  0.13617947  0.54080675     0.37030
C1089       C  0.70761973  0.10950522  0.59543032     0.35450
C1090       C  0.62495090  0.47365671  0.51113225     0.35450
N1091       N  0.72612561  0.13822723  0.61183420    -0.39370
N1092       N  0.60268955  0.45548626  0.49250201    -0.39370
N1093       N  0.74314031  0.17892935  0.53648490    -0.38810
N1094       N  0.53040061  0.45240729  0.56582704    -0.38820
C1095       C  0.82420772  0.00903013  0.58741121    -0.05480
C1096       C  0.80029021  0.46060816  0.57583528    -0.02600
C1097       C  0.78374062  0.46091059  0.54872046     0.02390
C1098       C  0.79059041  0.50939446  0.53299115    -0.05480
C1099       C  0.82124756  0.05395221  0.54324632    -0.02590
C1100       C  0.83221323  0.05688124  0.57092744     0.02390
C1101       C  0.78572626  0.41292510  0.59237157     0.37040
C1102       C  0.83288109  0.10043105  0.52572737     0.37030
C1103       C  0.84662120  0.11082063  0.58220366     0.35450
C1104       C  0.75449377  0.41317079  0.53774776     0.35450
N1105       N  0.85729915  0.15436854  0.59086028    -0.39370
N1106       N  0.73078803  0.37477935  0.52960465    -0.39370
N1107       N  0.84086366  0.13657658  0.51085397    -0.38810
N1108       N  0.77305434  0.37518772  0.60551828    -0.38820
C1109       C  0.52085904  0.18287408  0.53067852    -0.05480
C1110       C  0.56735554  0.19450266  0.54701062    -0.02600
C1111       C  0.56344995  0.18719529  0.57501394     0.02390
C1112       C  0.01850760  0.15677232  0.58561606    -0.05480
C1113       C  0.98640270  0.12561163  0.56750759    -0.02590
C1114       C  0.98444891  0.14139106  0.54020287     0.02390
C1115       C  0.61559762  0.22070663  0.53552051     0.37040
C1116       C  0.96541736  0.07210219  0.57614874     0.37030
C1117       C  0.95710344  0.10575029  0.52123805     0.35450
C1118       C  0.60434410  0.21240571  0.59252747     0.35450
N1119       N  0.93930086  0.07448243  0.50578109    -0.39370
N1120       N  0.63674243  0.23278085  0.60656726    -0.39370
N1121       N  0.95084233  0.02885034  0.58359768    -0.38810
N1122       N  0.65395381  0.24315935  0.52676927    -0.38820
C1123       C  0.99542421  0.32543867  0.58440465    -0.05480
C1124       C  0.54028493  0.33085225  0.56604466    -0.02600
C1125       C  0.53318291  0.31647076  0.53870725     0.02390
C1126       C  0.48854172  0.28244331  0.53097094    -0.05480
C1127       C  0.94263047  0.27974056  0.54856127    -0.02590
C1128       C  0.94570008  0.30086556  0.57497931     0.02390
C1129       C  0.59509600  0.34727793  0.57506443     0.37040
C1130       C  0.89103427  0.25608720  0.53946406     0.37030
C1131       C  0.89908119  0.29163512  0.59297368     0.35450
C1132       C  0.57423981  0.33245980  0.51905820     0.35450
N1133       N  0.86201992  0.28354304  0.60727452    -0.39370
N1134       N  0.60829442  0.34426270  0.50371180    -0.39370
N1135       N  0.84750951  0.24086341  0.53324931    -0.38810
N1136       N  0.63923806  0.35957456  0.58200780    -0.38820
C1137       C  0.73333460  0.05600972  0.02650380    -0.05480
C1138       C  0.68710301  0.04012399  0.04307784    -0.02600
C1139       C  0.68950471  0.04788601  0.07147040     0.02390
C1140       C  0.72896161  0.08420685  0.08236322    -0.05480
C1141       C  0.76199544  0.11345341  0.06449461    -0.02590
C1142       C  0.77222436  0.09175677  0.03903109     0.02390
C1143       C  0.63645107  0.01777176  0.03227510     0.37040
C1144       C  0.78302005  0.16705770  0.07212133     0.37030
C1145       C  0.82992571  0.08666692  0.03402167     0.35450
C1146       C  0.65178249  0.01930093  0.08947521     0.35450
N1147       N  0.87729796  0.08073020  0.03378458    -0.39370
N1148       N  0.62165969  0.99819581  0.10447860    -0.39370
N1149       N  0.79452276  0.21100063  0.07960064    -0.38810
N1150       N  0.59316668  0.50180429  0.02588726    -0.38820
C1151       C  0.77388204  0.44351270  0.02765888    -0.05480
C1152       C  0.81817811  0.45321441  0.04555263    -0.02600
C1153       C  0.80990966  0.45057708  0.07366502     0.02390
C1154       C  0.75929747  0.42995679  0.08426173    -0.05480
C1155       C  0.71770325  0.41365999  0.06593825    -0.02590
C1156       C  0.72453225  0.42017169  0.03808757     0.02390
C1157       C  0.87342366  0.46236677  0.03525323     0.37040
C1158       C  0.66541267  0.39416373  0.07577065     0.37030
C1159       C  0.67846742  0.40547804  0.02077412     0.35450
C1160       C  0.85445197  0.46747298  0.09145910     0.35450
N1161       N  0.64122760  0.39212602  0.00761788    -0.39370
N1162       N  0.89020147  0.48083035  0.10554935    -0.39370
N1163       N  0.62305702  0.38248606  0.08473293    -0.38810
N1164       N  0.91859615  0.46896803  0.02807203    -0.38820
C1165       C  0.74162773  0.05371038  0.97270718    -0.05480
C1166       C  0.69654982  0.03884676  0.95567820    -0.02600
C1167       C  0.69793526  0.05026747  0.92762351     0.02390
C1168       C  0.74584668  0.07329032  0.91555892    -0.05480
C1169       C  0.79136274  0.08535217  0.93219151    -0.02590
C1170       C  0.78727303  0.08101001  0.96037426     0.02390
C1171       C  0.64946546  0.00830743  0.96593369     0.37040
C1172       C  0.84544853  0.09541417  0.92041087     0.37030
C1173       C  0.83474337  0.10004777  0.97516968     0.35450
C1174       C  0.65179851  0.03310737  0.91082983     0.35450
N1175       N  0.87686795  0.11588365  0.98312089    -0.39370
N1176       N  0.61510310  0.01888498  0.89752245    -0.39370
N1177       N  0.88918844  0.09975481  0.91111862    -0.38810
N1178       N  0.61023193  0.48326824  0.97162558    -0.38820
C1179       C  0.78635099  0.44192138  0.97516984    -0.05480
C1180       C  0.82781110  0.45846869  0.95663246    -0.02600
C1181       C  0.82135712  0.44645726  0.92876067     0.02390
C1182       C  0.77126910  0.42198145  0.91925698    -0.05480
C1183       C  0.73325773  0.40311251  0.93866869    -0.02590
C1184       C  0.74719521  0.40419745  0.96583857     0.02390
C1185       C  0.87871166  0.48339269  0.96605186     0.37040
C1186       C  0.67815611  0.38640930  0.93160649     0.37030
C1187       C  0.74282042  0.35303307  0.98050247     0.35450
C1188       C  0.86498333  0.46174042  0.91007983     0.35450
N1189       N  0.74140334  0.31315443  0.99344091    -0.39370
N1190       N  0.89981978  0.47376330  0.89512980    -0.39370
N1191       N  0.63275305  0.37743289  0.92585245    -0.38810
N1192       N  0.92060191  0.00288928  0.97238808    -0.38820
C1193       C  0.55920734  0.26043326  0.02680770    -0.05480
C1194       C  0.58044573  0.21181762  0.03936612    -0.02600
C1195       C  0.58292755  0.20783593  0.06753244     0.02390
C1196       C  0.56967628  0.25378717  0.08399383    -0.05480
C1197       C  0.54505233  0.30090903  0.07180938    -0.02590
C1198       C  0.54455196  0.30619705  0.04344795     0.02390
C1199       C  0.59560209  0.16338125  0.02364269     0.37040
C1200       C  0.51527834  0.34126332  0.08830621     0.37030
C1201       C  0.52758854  0.35841688  0.03145090     0.35450
C1202       C  0.58560919  0.15333262  0.07955689     0.35450
N1203       N  0.51553313  0.40097514  0.02213316    -0.39370
N1204       N  0.58224314  0.11068578  0.09014163    -0.39370
N1205       N  0.49132279  0.37338408  0.10138320    -0.38810
N1206       N  0.60921537  0.12516607  0.01100907    -0.38820
C1207       C  0.94753441  0.22841062  0.02522895    -0.05480
C1208       C  0.95570190  0.18168926  0.04212534    -0.02600
C1209       C  0.94177814  0.18458625  0.06985552     0.02390
C1210       C  0.91716262  0.23368153  0.08069533    -0.05480
C1211       C  0.90106139  0.27576700  0.06253003    -0.02590
C1212       C  0.91872491  0.27514931  0.03565032     0.02390
C1213       C  0.97878715  0.13071336  0.03093613     0.37040
C1214       C  0.85433025  0.31005993  0.06934857     0.37030
C1215       C  0.90230705  0.32094916  0.01838349     0.35450
C1216       C  0.95141137  0.13638762  0.08682535     0.35450
N1217       N  0.88487427  0.35601597  0.00481580    -0.39370
N1218       N  0.95859709  0.09775942  0.10038147    -0.39370
N1219       N  0.81224150  0.33025616  0.07445800    -0.38810
N1220       N  0.49535222  0.08901811  0.02211363    -0.38820
C1221       C  0.58613295  0.26314205  0.91833105    -0.05480
C1222       C  0.54361324  0.29949551  0.92705548    -0.02600
C1223       C  0.53260479  0.30537907  0.95475375     0.02390
C1224       C  0.56097575  0.27184540  0.97383718    -0.05480
C1225       C  0.61065689  0.24536136  0.96520904    -0.02590
C1226       C  0.62186680  0.23935910  0.93754105     0.02390
C1227       C  0.51236534  0.33225048  0.90765083     0.37040
C1228       C  0.65289205  0.22750870  0.98387173     0.37030
C1229       C  0.67265602  0.21229819  0.92887095     0.35450
C1230       C  0.49394496  0.34800810  0.96324555     0.35450
N1231       N  0.71381346  0.19194843  0.92193501    -0.39370
N1232       N  0.96442102  0.38474923  0.96815772    -0.39370
N1233       N  0.68882887  0.21232543  0.99750373    -0.38810
N1234       N  0.48794261  0.35901956  0.89229514    -0.38820
C1235       C  0.94958862  0.21876011  0.97234303    -0.05480
C1236       C  0.89595753  0.23916771  0.96595505    -0.02600
C1237       C  0.88151401  0.24915836  0.93885692     0.02390
C1238       C  0.91705612  0.23125415  0.91797171    -0.05480
C1239       C  0.96241450  0.19633917  0.92460260    -0.02590
C1240       C  0.97788934  0.18916429  0.95175889     0.02390
C1241       C  0.85213131  0.23508116  0.98573770     0.37040
C1242       C  0.99247427  0.16678851  0.90358919     0.37030
C1243       C  0.02009913  0.14834382  0.95835149     0.35450
C1244       C  0.82768533  0.27230100  0.93228786     0.35450
N1245       N  0.55313532  0.11404559  0.96218447    -0.39370
N1246       N  0.78465606  0.28996091  0.92643440    -0.39370
N1247       N  0.01536624  0.14201931  0.88689149    -0.38810
N1248       N  0.81796967  0.22814753  0.00177025    -0.38820
C1249       C  0.74724992  0.99887048  0.24913246    -0.02630
C1250       C  0.97834317  0.73295738  0.99883397     0.00420
C1251       C  0.53163192  0.75477311  0.99957330     0.00420
C1252       C  0.75155807  0.50128395  0.75106315    -0.02630
C1253       C  0.00237119  0.75398587  0.75209569    -0.02630
C1254       C  0.77276515  0.97323644  0.00098517     0.00420
C1255       C  0.74858526  0.52586199  0.00009742     0.00420
N1256       N  0.72951279  0.87187968  0.85443957    -0.06260
N1257       N  0.71469775  0.89429926  0.87782600    -0.58380
N1258       N  0.78087594  0.87929909  0.79218413    -0.05940
N1259       N  0.79931860  0.92227225  0.77792864    -0.60510
N1260       N  0.72591437  0.87995258  0.79249036    -0.05540
N1261       N  0.70671397  0.92302321  0.77857619    -0.58360
N1262       N  0.78387367  0.86974928  0.85300779    -0.05220
N1263       N  0.80682580  0.89060130  0.87476300    -0.60860
C1264       C  0.76371037  0.90645468  0.89022332     0.95910
C1265       C  0.75266422  0.94911247  0.76925380     0.95690
N1266       N  0.87745253  0.72394395  0.79074817    -0.06450
N1267       N  0.92170365  0.70588430  0.77732402    -0.58960
N1268       N  0.86876260  0.77340234  0.85342932    -0.04570
N1269       N  0.88810698  0.78818267  0.87734240    -0.60210
N1270       N  0.86815537  0.71862267  0.85153617    -0.06480
N1271       N  0.88774798  0.69525986  0.87350538    -0.59230
N1272       N  0.87779013  0.77920438  0.79153769    -0.04210
N1273       N  0.92184809  0.79890364  0.77868575    -0.60300
Mn1274     Mn  0.82847716  0.82602180  0.82184211     1.18440
C1275       C  0.94904642  0.75296515  0.76956703     0.98000
C1276       C  0.90059093  0.73876391  0.88939260     0.98900
N1277       N  0.62524635  0.78362789  0.79225412    -0.06500
N1278       N  0.58130865  0.80232717  0.77875641    -0.62810
N1279       N  0.63449740  0.72858075  0.85327788    -0.05300
N1280       N  0.61368426  0.71121596  0.87639750    -0.63480
N1281       N  0.63512609  0.78348769  0.85280675    -0.06000
N1282       N  0.61419195  0.80450193  0.87507322    -0.63070
N1283       N  0.62552913  0.72827512  0.79197857    -0.04900
N1284       N  0.58225855  0.70922789  0.77849010    -0.63760
Mn1285     Mn  0.67813070  0.83066825  0.82236143     1.10660
C1286       C  0.55487701  0.75544134  0.76997620     0.99220
C1287       C  0.60039552  0.75919272  0.88950655     0.99300
N1288       N  0.77545371  0.62971422  0.85077294    -0.06010
N1289       N  0.79342492  0.60399862  0.87255053    -0.61380
N1290       N  0.72177291  0.62657515  0.79039071    -0.05330
N1291       N  0.70344729  0.58182472  0.77735495    -0.58110
N1292       N  0.77674834  0.62707239  0.78975739    -0.06640
N1293       N  0.79586869  0.58308113  0.77645150    -0.60950
N1294       N  0.72106729  0.63225060  0.85123791    -0.05630
N1295       N  0.70119768  0.60863373  0.87319955    -0.58140
Mn1296     Mn  0.82503387  0.67451723  0.81988480     1.20190
Mn1297     Mn  0.67490804  0.67844296  0.82110436     1.10090
Cl1298     Cl  0.75146501  0.75246799  0.81953176    -0.86110
C1299       C  0.74677719  0.59064689  0.88647656     0.96230
C1300       C  0.75006807  0.55517124  0.76836449     0.96020
N1301       N  0.72183090  0.87609003  0.20864662    -0.06260
N1302       N  0.70275510  0.91944592  0.22243622    -0.58380
N1303       N  0.77822053  0.86822357  0.14798823    -0.05940
N1304       N  0.79959211  0.89325003  0.12685011    -0.60510
N1305       N  0.72379280  0.87108591  0.14775753    -0.05540
N1306       N  0.70739539  0.89867854  0.12617543    -0.58360
N1307       N  0.77685472  0.87581456  0.20847186    -0.05220
N1308       N  0.79531218  0.91943364  0.22232754    -0.60860
C1309       C  0.74865474  0.94621672  0.23120207     0.95910
C1310       C  0.75520419  0.91247612  0.11319582     0.95690
N1311       N  0.86344379  0.71654496  0.14682144    -0.06450
N1312       N  0.88446993  0.69421265  0.12476360    -0.58960
N1313       N  0.87359936  0.77536596  0.20780767    -0.04570
N1314       N  0.91650796  0.79513268  0.22142039    -0.60210
N1315       N  0.87394109  0.72006719  0.20786343    -0.06480
N1316       N  0.91773511  0.70201508  0.22157658    -0.59230
N1317       N  0.86571805  0.77137252  0.14600263    -0.04210
N1318       N  0.88855242  0.78712109  0.12295356    -0.60300
Mn1319     Mn  0.82432410  0.82314963  0.17815404     1.18440
C1320       C  0.90042432  0.73835096  0.10987354     0.98000
C1321       C  0.94386435  0.74921823  0.23026197     0.98660
N1322       N  0.62795948  0.78102159  0.14820585    -0.06500
N1323       N  0.60394036  0.80032741  0.12619107    -0.62810
N1324       N  0.62176036  0.72531310  0.20989100    -0.05300
N1325       N  0.57813403  0.70604033  0.22309045    -0.63480
N1326       N  0.62063113  0.78059975  0.20917319    -0.06000
N1327       N  0.57574105  0.79904991  0.22208024    -0.63070
N1328       N  0.62603497  0.72620276  0.14885233    -0.04900
N1329       N  0.60088151  0.70746938  0.12712662    -0.63760
Mn1330     Mn  0.67294811  0.82789319  0.17892290     1.10660
C1331       C  0.58672849  0.75395697  0.11308313     0.99220
C1332       C  0.54962288  0.75210357  0.23096209     0.99300
N1333       N  0.77320805  0.62300008  0.20904210    -0.06010
N1334       N  0.79232678  0.57879873  0.22222189    -0.61380
N1335       N  0.71339263  0.63126101  0.14892846    -0.05330
N1336       N  0.69048322  0.61096326  0.12696590    -0.58110
N1337       N  0.76785141  0.62945187  0.14746364    -0.06640
N1338       N  0.78289960  0.60793819  0.12402751    -0.60950
N1339       N  0.71825694  0.62402399  0.20973284    -0.05630
N1340       N  0.69991610  0.58032168  0.22351147    -0.58140
Mn1341     Mn  0.82030898  0.67158271  0.17845344     1.20190
Mn1342     Mn  0.66962770  0.67634314  0.18013092     1.10090
Cl1343     Cl  0.74686812  0.74988921  0.18047525    -0.86110
C1344       C  0.74644749  0.55249847  0.23159041     0.96230
C1345       C  0.73406916  0.59602421  0.11160882     0.96020
N1346       N  0.97491715  0.62864705  0.71333701    -0.06260
N1347       N  0.95650714  0.67413408  0.72574456    -0.58380
N1348       N  0.53127004  0.62402391  0.65400027    -0.05940
N1349       N  0.55394408  0.64186949  0.63157837    -0.60510
N1350       N  0.97707638  0.62172723  0.65176283    -0.05540
N1351       N  0.96213729  0.63707215  0.62725306    -0.58360
N1352       N  0.52979205  0.62672774  0.71446888    -0.05220
N1353       N  0.54879990  0.67081341  0.72767875    -0.60860
C1354       C  0.00277029  0.70004117  0.73497815     0.95910
C1355       C  0.01086524  0.64982530  0.61499213     0.95690
N1356       N  0.61533680  0.97869993  0.64759947    -0.06450
N1357       N  0.62742301  0.96569930  0.62220925    -0.58960
N1358       N  0.62724110  0.52716878  0.71214744    -0.04570
N1359       N  0.66972435  0.54607954  0.72621106    -0.60210
N1360       N  0.62983884  0.97211053  0.71008786    -0.06480
N1361       N  0.67448232  0.95329935  0.72300888    -0.59230
N1362       N  0.61729917  0.53313520  0.65089599    -0.04210
N1363       N  0.63136212  0.55763810  0.62828379    -0.60300
Mn1364     Mn  0.57696737  0.57774396  0.68405356     1.18440
C1365       C  0.63763843  0.51589216  0.61044274     0.98000
C1366       C  0.69898723  0.49992271  0.73325195     0.98660
N1367       N  0.88367489  0.53289889  0.65159972    -0.06500
N1368       N  0.85960929  0.55343604  0.62995971    -0.62810
N1369       N  0.87623160  0.97483485  0.71178766    -0.05300
N1370       N  0.83208793  0.95552088  0.72471619    -0.63480
N1371       N  0.87611337  0.53019720  0.71225562    -0.06000
N1372       N  0.83188913  0.54861444  0.72554748    -0.63070
N1373       N  0.88358346  0.97811123  0.65092245    -0.04900
N1374       N  0.85991822  0.96039822  0.62863696    -0.63760
Mn1375     Mn  0.92725179  0.57921468  0.68284115     1.10660
C1376       C  0.84457424  0.50779257  0.61574721     0.99220
C1377       C  0.80475995  0.50178736  0.73356475     0.99300
N1378       N  0.53020600  0.87426880  0.70966290    -0.06010
N1379       N  0.54879142  0.83097398  0.72372993    -0.61380
N1380       N  0.97345863  0.88607917  0.64908609    -0.05330
N1381       N  0.95310866  0.86399894  0.62693593    -0.58110
N1382       N  0.52788244  0.88518593  0.64831377    -0.06640
N1383       N  0.54548910  0.86211823  0.62565387    -0.60950
N1384       N  0.97521747  0.87573436  0.71052745    -0.05630
N1385       N  0.95625227  0.83370634  0.72523665    -0.58140
Mn1386     Mn  0.57726900  0.92640260  0.67946757     1.20190
Mn1387     Mn  0.92656896  0.92782873  0.68131827     1.10090
Cl1388     Cl  0.00184363  0.50245082  0.68391810    -0.86110
C1389       C  0.00240315  0.80609491  0.73368963     0.96230
C1390       C  0.99829045  0.84861224  0.61244060     0.96020
N1391       N  0.96778980  0.87206856  0.29037806    -0.06260
N1392       N  0.94897849  0.82893080  0.27627252    -0.58380
N1393       N  0.52486708  0.88294104  0.35106734    -0.05940
N1394       N  0.54504843  0.86073712  0.37323734    -0.60510
N1395       N  0.97042207  0.88254108  0.35175307    -0.05540
N1396       N  0.95265546  0.85971432  0.37437173    -0.58360
N1397       N  0.52280440  0.87267413  0.28972313    -0.05220
N1398       N  0.54154635  0.82997650  0.27527968    -0.60860
C1399       C  0.99533889  0.80303302  0.26661306     0.95910
C1400       C  0.49975525  0.84579301  0.38763992     0.95690
N1401       N  0.61501584  0.52898963  0.34877117    -0.06450
N1402       N  0.63880272  0.54956960  0.37042449    -0.58960
N1403       N  0.62262728  0.97118948  0.28842355    -0.04570
N1404       N  0.66690137  0.95203456  0.27529324    -0.60210
N1405       N  0.62242781  0.52653209  0.28817335    -0.06480
N1406       N  0.66642799  0.54510601  0.27494339    -0.59230
N1407       N  0.61512364  0.97421094  0.34951779    -0.04210
N1408       N  0.63850937  0.95658252  0.37193782    -0.60300
Mn1409     Mn  0.57197621  0.92433263  0.31895619     1.18440
C1410       C  0.65365908  0.50405532  0.38479162     0.98000
C1411       C  0.69388390  0.49847114  0.26662482     0.98660
N1412       N  0.88301718  0.97698163  0.35265393    -0.06500
N1413       N  0.87096085  0.96395166  0.37801469    -0.62810
N1414       N  0.87130417  0.52582363  0.28809118    -0.05300
N1415       N  0.82875907  0.54475708  0.27388910    -0.63480
N1416       N  0.86891507  0.97083017  0.29024259    -0.06000
N1417       N  0.82440377  0.95207002  0.27740672    -0.63070
N1418       N  0.88106535  0.53145059  0.34947358    -0.04900
N1419       N  0.86711635  0.55596010  0.37215631    -0.63760
Mn1420     Mn  0.92115871  0.92452579  0.32069741     1.10660
C1421       C  0.86081859  0.51417810  0.38989675     0.99220
C1422       C  0.79969985  0.49853630  0.26701011     0.99300
N1423       N  0.52415671  0.62533439  0.28710557    -0.06010
N1424       N  0.54283617  0.67019673  0.27441120    -0.61380
N1425       N  0.96726977  0.62151149  0.34663837    -0.05330
N1426       N  0.94458449  0.63953102  0.36909213    -0.58110
N1427       N  0.52149944  0.61871105  0.34885855    -0.06640
N1428       N  0.53639772  0.63387637  0.37340885    -0.60950
N1429       N  0.96925348  0.62432399  0.28622571    -0.05630
N1430       N  0.95043658  0.66864752  0.27312314    -0.58140
Mn1431     Mn  0.57143646  0.57568051  0.31763162     1.20190
Mn1432     Mn  0.92159768  0.57583577  0.31645155     1.10090
Cl1433     Cl  0.99670793  0.49986430  0.31713207    -0.86110
C1434       C  0.99657201  0.69685541  0.26544707     0.96230
C1435       C  0.48765669  0.64707501  0.38569901     0.96020
C1436       C  0.49980409  0.73116969  0.51401426     0.00420
C1437       C  0.49867562  0.73093455  0.48647126     0.00420
C1438       C  0.74538871  0.02309278  0.51383200     0.00420
C1439       C  0.75314423  0.02261258  0.48658183     0.00420
C1440       C  0.49620734  0.75059292  0.24829684    -0.02630
C1441       C  0.48002251  0.65478155  0.41508142    -0.05480
C1442       C  0.93497846  0.68574093  0.42558942    -0.02600
C1443       C  0.93121885  0.69392300  0.45356101     0.02390
C1444       C  0.47782387  0.68248634  0.46991269    -0.05480
C1445       C  0.51438850  0.64062069  0.46055358    -0.02590
C1446       C  0.51236484  0.62402433  0.43333938     0.02390
C1447       C  0.89377274  0.71055196  0.40801870     0.37040
C1448       C  0.54229954  0.60573924  0.47970187     0.37030
C1449       C  0.53340657  0.57010359  0.42501382     0.35450
C1450       C  0.88278813  0.72039372  0.46500922     0.35450
N1451       N  0.54797975  0.52648041  0.41783772    -0.39370
N1452       N  0.84426187  0.74294529  0.47377651    -0.39370
N1453       N  0.56070805  0.57530700  0.49541256    -0.38810
N1454       N  0.86109607  0.73061582  0.39394711    -0.38820
C1455       C  0.50249008  0.82300983  0.41571664    -0.05480
C1456       C  0.55224766  0.79827117  0.42521397    -0.02600
C1457       C  0.55566637  0.77844647  0.45181668     0.02390
C1458       C  0.50975340  0.78183408  0.46940253    -0.05480
C1459       C  0.96485090  0.81570380  0.46148543    -0.02590
C1460       C  0.95763477  0.82931750  0.43406919     0.02390
C1461       C  0.59851395  0.78751299  0.40713268     0.37040
C1462       C  0.92365035  0.83215020  0.48107871     0.37030
C1463       C  0.90279397  0.84595400  0.42498679     0.35450
C1464       C  0.60778887  0.75602178  0.46117062     0.35450
N1465       N  0.85861594  0.85844075  0.41801732    -0.39370
N1466       N  0.65178292  0.74213474  0.46754826    -0.39370
N1467       N  0.88955573  0.84415289  0.49644351    -0.38810
N1468       N  0.63519405  0.77821164  0.39271271    -0.38820
C1469       C  0.67377304  0.00594683  0.41319107    -0.05480
C1470       C  0.69726975  0.95765510  0.42525543    -0.02600
C1471       C  0.71449896  0.95922302  0.45227492     0.02390
C1472       C  0.70799842  0.00855315  0.46751875    -0.05480
C1473       C  0.67737037  0.55294543  0.45690792    -0.02590
C1474       C  0.66623738  0.55471966  0.42923407     0.02390
C1475       C  0.71049504  0.90852767  0.40932030     0.37040
C1476       C  0.66594283  0.60030627  0.47403294     0.37030
C1477       C  0.65179041  0.60833974  0.41755148     0.35450
C1478       C  0.74373660  0.91169592  0.46366582     0.35450
N1479       N  0.64106796  0.65166555  0.40859859    -0.39370
N1480       N  0.76736944  0.87341497  0.47216652    -0.39370
N1481       N  0.65821890  0.63705647  0.48867923    -0.38810
N1482       N  0.72210278  0.86952793  0.39668819    -0.38820
C1483       C  0.80569537  0.03944108  0.47181399    -0.05480
C1484       C  0.79977072  0.08231115  0.45241473    -0.02600
C1485       C  0.81299470  0.07158601  0.42541324     0.02390
C1486       C  0.84634501  0.02489838  0.41877069    -0.05480
C1487       C  0.87066684  0.49512421  0.44038397    -0.02590
C1488       C  0.84780253  0.49992119  0.46668934     0.02390
C1489       C  0.77558466  0.13559906  0.45934323     0.37040
C1490       C  0.92416997  0.46912364  0.43674491     0.37030
C1491       C  0.87393753  0.47316651  0.48934872     0.35450
C1492       C  0.79012796  0.10787571  0.40477798     0.35450
N1493       N  0.89633886  0.45533721  0.50804439    -0.39370
N1494       N  0.77156487  0.13651821  0.38831968    -0.39370
N1495       N  0.96824496  0.45035996  0.43458589    -0.38810
N1496       N  0.75569309  0.17879629  0.46353200    -0.38820
C1497       C  0.65187932  0.52657882  0.58155431    -0.05480
C1498       C  0.62778817  0.99663765  0.55999116    -0.02600
C1499       C  0.65073430  0.00093470  0.53370338     0.02390
C1500       C  0.69263307  0.04024563  0.52851422    -0.05480
C1501       C  0.69827136  0.58338030  0.54781761    -0.02590
C1502       C  0.68493313  0.57310898  0.57484065     0.02390
C1503       C  0.57440081  0.97092011  0.56365298     0.37040
C1504       C  0.72286573  0.63617687  0.54080473     0.37030
C1505       C  0.70762079  0.60950193  0.59542803     0.35450
C1506       C  0.62494943  0.97365853  0.51113529     0.35450
N1507       N  0.72612788  0.63822311  0.61183193    -0.39370
N1508       N  0.60268685  0.95548856  0.49250530    -0.39370
N1509       N  0.74314187  0.67892668  0.53648325    -0.38810
N1510       N  0.53040406  0.95240536  0.56583236    -0.38820
C1511       C  0.82421287  0.50902809  0.58741001    -0.05480
C1512       C  0.80028671  0.96060981  0.57583585    -0.02600
C1513       C  0.78373968  0.96091218  0.54872072     0.02390
C1514       C  0.79058936  0.00939661  0.53299189    -0.05480
C1515       C  0.82124911  0.55395018  0.54324511    -0.02590
C1516       C  0.83221630  0.55687939  0.57092607     0.02390
C1517       C  0.78572222  0.91292589  0.59237151     0.37040
C1518       C  0.83288267  0.60042863  0.52572588     0.37030
C1519       C  0.84662369  0.61081918  0.58220199     0.35450
C1520       C  0.75449477  0.91317192  0.53774724     0.35450
N1521       N  0.85730104  0.65436747  0.59085831    -0.39370
N1522       N  0.73079064  0.87477990  0.52960366    -0.39370
N1523       N  0.84086557  0.63657373  0.51085227    -0.38810
N1524       N  0.77305016  0.87518783  0.60551773    -0.38820
C1525       C  0.52086304  0.68287344  0.53067463    -0.05480
C1526       C  0.56736065  0.69450027  0.54700619    -0.02600
C1527       C  0.56345512  0.68719422  0.57500956     0.02390
C1528       C  0.01850913  0.65677342  0.58561221    -0.05480
C1529       C  0.98640357  0.62561184  0.56750442    -0.02590
C1530       C  0.98444810  0.64139035  0.54019969     0.02390
C1531       C  0.61560251  0.72070373  0.53551553     0.37040
C1532       C  0.96541964  0.57210232  0.57614615     0.37030
C1533       C  0.95710377  0.60574778  0.52123527     0.35450
C1534       C  0.60435030  0.71240414  0.59252268     0.35450
N1535       N  0.93930223  0.57447885  0.50577854    -0.39370
N1536       N  0.63674951  0.73277910  0.60656207    -0.39370
N1537       N  0.95084564  0.52885047  0.58359550    -0.38810
N1538       N  0.65395800  0.74315632  0.52676347    -0.38820
C1539       C  0.99540626  0.82543655  0.58440051    -0.05480
C1540       C  0.54029832  0.83085001  0.56604021    -0.02600
C1541       C  0.53319278  0.81647029  0.53870284     0.02390
C1542       C  0.48854999  0.78244394  0.53096744    -0.05480
C1543       C  0.94261876  0.77973693  0.54855606    -0.02590
C1544       C  0.94568439  0.80086176  0.57497410     0.02390
C1545       C  0.59510984  0.84727660  0.57505886     0.37040
C1546       C  0.89102321  0.75608601  0.53945688     0.37030
C1547       C  0.89906449  0.79162904  0.59296756     0.35450
C1548       C  0.57424797  0.83245910  0.51905289     0.35450
N1549       N  0.86200292  0.78353494  0.60726794    -0.39370
N1550       N  0.60830130  0.84426172  0.50370576    -0.39370
N1551       N  0.84749807  0.74086606  0.53324065    -0.38810
N1552       N  0.63925193  0.85957431  0.58200171    -0.38820
C1553       C  0.73330281  0.55604271  0.02650257    -0.05480
C1554       C  0.68707628  0.54014749  0.04307835    -0.02600
C1555       C  0.68947862  0.54791456  0.07147056     0.02390
C1556       C  0.72893045  0.58424270  0.08236175    -0.05480
C1557       C  0.76194893  0.61350299  0.06449163    -0.02590
C1558       C  0.77218007  0.59180704  0.03902765     0.02390
C1559       C  0.63642540  0.51778617  0.03227835     0.37040
C1560       C  0.78299353  0.66709653  0.07212521     0.37030
C1561       C  0.82988109  0.58673062  0.03401896     0.35450
C1562       C  0.65176365  0.51932503  0.08947716     0.35450
N1563       N  0.87725391  0.58080385  0.03378794    -0.39370
N1564       N  0.62164838  0.49821478  0.10448242    -0.39370
N1565       N  0.79452184  0.71102873  0.07961012    -0.38810
N1566       N  0.59319286  0.00179458  0.02588082    -0.38820
C1567       C  0.77389892  0.94347785  0.02765717    -0.05480
C1568       C  0.81819467  0.95317701  0.04555095    -0.02600
C1569       C  0.80992089  0.95055528  0.07366322     0.02390
C1570       C  0.75930832  0.92993472  0.08425974    -0.05480
C1571       C  0.71771680  0.91363211  0.06593618    -0.02590
C1572       C  0.72454693  0.92014124  0.03808548     0.02390
C1573       C  0.87344447  0.96230507  0.03525152     0.37040
C1574       C  0.66542628  0.89413834  0.07576899     0.37030
C1575       C  0.67848341  0.90544638  0.02077137     0.35450
C1576       C  0.85446061  0.96745897  0.09145706     0.35450
N1577       N  0.64124485  0.89209175  0.00761491    -0.39370
N1578       N  0.89020838  0.98082325  0.10554683    -0.39370
N1579       N  0.62307192  0.88246390  0.08473348    -0.38810
N1580       N  0.91861874  0.96888768  0.02806862    -0.38820
C1581       C  0.74161604  0.55373729  0.97270566    -0.05480
C1582       C  0.69653843  0.53887385  0.95567676    -0.02600
C1583       C  0.69793302  0.55027515  0.92762052     0.02390
C1584       C  0.74585100  0.57328310  0.91555500    -0.05480
C1585       C  0.79136554  0.58535015  0.93218796    -0.02590
C1586       C  0.78727094  0.58101929  0.96037120     0.02390
C1587       C  0.64944755  0.50834718  0.96593431     0.37040
C1588       C  0.84545287  0.59541730  0.92040845     0.37030
C1589       C  0.83475083  0.60003863  0.97516509     0.35450
C1590       C  0.65179622  0.53311277  0.91082728     0.35450
N1591       N  0.87688802  0.61585168  0.98311152    -0.39370
N1592       N  0.61510039  0.51888878  0.89752057    -0.39370
N1593       N  0.88919609  0.59976756  0.91112053    -0.38810
N1594       N  0.61025342  0.98322060  0.97162264    -0.38820
C1595       C  0.78637536  0.94189260  0.97517036    -0.05480
C1596       C  0.82782744  0.95845456  0.95663197    -0.02600
C1597       C  0.82137079  0.94644602  0.92876023     0.02390
C1598       C  0.77128652  0.92196016  0.91925859    -0.05480
C1599       C  0.73328538  0.90307707  0.93867123    -0.02590
C1600       C  0.74722690  0.90415968  0.96584033     0.02390
C1601       C  0.87872280  0.98339051  0.96605100     0.37040
C1602       C  0.67818151  0.88638389  0.93161102     0.37030
C1603       C  0.74285444  0.85299408  0.98050473     0.35450
C1604       C  0.86498844  0.96174199  0.91007734     0.35450
N1605       N  0.74143883  0.81311038  0.99344002    -0.39370
N1606       N  0.89981735  0.97377408  0.89512495    -0.39370
N1607       N  0.63277631  0.87742335  0.92585632    -0.38810
N1608       N  0.92059658  0.50288146  0.97238713    -0.38820
C1609       C  0.55921015  0.76044284  0.02682287    -0.05480
C1610       C  0.58042103  0.71181680  0.03938263    -0.02600
C1611       C  0.58288851  0.70782970  0.06754876     0.02390
C1612       C  0.56965147  0.75378547  0.08400904    -0.05480
C1613       C  0.54504523  0.80091562  0.07182418    -0.02590
C1614       C  0.54456068  0.80621030  0.04346295     0.02390
C1615       C  0.59557001  0.66337952  0.02365973     0.37040
C1616       C  0.51527840  0.84127660  0.08832042     0.37030
C1617       C  0.52760303  0.85843620  0.03146789     0.35450
C1618       C  0.58554650  0.65332395  0.07957301     0.35450
N1619       N  0.51553566  0.90099803  0.02215660    -0.39370
N1620       N  0.58216624  0.61067665  0.09015661    -0.39370
N1621       N  0.49132812  0.87340272  0.10139664    -0.38810
N1622       N  0.60918070  0.62516480  0.01102560    -0.38820
C1623       C  0.94759634  0.72836869  0.02523237    -0.05480
C1624       C  0.95574188  0.68164524  0.04213046    -0.02600
C1625       C  0.94180586  0.68454634  0.06985998     0.02390
C1626       C  0.91719860  0.73364812  0.08069805    -0.05480
C1627       C  0.90111668  0.77573571  0.06253036    -0.02590
C1628       C  0.91878939  0.77511258  0.03565152     0.02390
C1629       C  0.97879686  0.63065507  0.03094127     0.37040
C1630       C  0.85439856  0.81004780  0.06934686     0.37030
C1631       C  0.90236413  0.82090485  0.01838205     0.35450
C1632       C  0.95141417  0.63634397  0.08683040     0.35450
N1633       N  0.88490853  0.85596114  0.00481489    -0.39370
N1634       N  0.95858025  0.59771327  0.10038724    -0.39370
N1635       N  0.81231981  0.83026473  0.07445615    -0.38810
N1636       N  0.49528245  0.58905418  0.02208737    -0.38820
C1637       C  0.58617530  0.76311418  0.91834246    -0.05480
C1638       C  0.54367651  0.79949101  0.92706618    -0.02600
C1639       C  0.53266819  0.80537696  0.95476352     0.02390
C1640       C  0.56101204  0.77182930  0.97384909    -0.05480
C1641       C  0.61067763  0.74531257  0.96522278    -0.02590
C1642       C  0.62189132  0.73930913  0.93755421     0.02390
C1643       C  0.51246123  0.83228035  0.90766226     0.37040
C1644       C  0.65290890  0.72745939  0.98388750     0.37030
C1645       C  0.67268089  0.71225069  0.92888506     0.35450
C1646       C  0.49401849  0.84800887  0.96325360     0.35450
N1647       N  0.71384236  0.69191276  0.92194731    -0.39370
N1648       N  0.96450332  0.88472451  0.96820488    -0.39370
N1649       N  0.68884198  0.71227900  0.99752262    -0.38810
N1650       N  0.48806993  0.85907919  0.89230698    -0.38820
C1651       C  0.94966655  0.71873553  0.97234158    -0.05480
C1652       C  0.89602362  0.73912790  0.96595961    -0.02600
C1653       C  0.88156467  0.74912728  0.93886367     0.02390
C1654       C  0.91709905  0.73124201  0.91797201    -0.05480
C1655       C  0.96247653  0.69634577  0.92459455    -0.02590
C1656       C  0.97797294  0.68916785  0.95174846     0.02390
C1657       C  0.85220234  0.73503673  0.98574528     0.37040
C1658       C  0.99252517  0.66680582  0.90357432     0.37030
C1659       C  0.02022190  0.64837755  0.95832793     0.35450
C1660       C  0.82772754  0.77226128  0.93230301     0.35450
N1661       N  0.55299025  0.61394056  0.96224988    -0.39370
N1662       N  0.78469191  0.78991606  0.92645677    -0.39370
N1663       N  0.01540350  0.64204263  0.88687025    -0.38810
N1664       N  0.81803831  0.72810854  0.00177736    -0.38820
loop_ 
_geom_bond_atom_site_label_1 
_geom_bond_atom_site_label_2 
_geom_bond_distance 
_geom_bond_site_symmetry_2 
_ccdc_geom_bond_type 
C1           C61   1.543       .  S
C1          C512   1.553       .  S
C1          C590   1.546       .  S
C1          C579   1.550       .  S
C2          C375   1.510   1_556  S
C2          C403   1.528       .  S
C2          C835   1.389       .  D
C3          C361   1.517   1_556  S
C3          C392   1.518       .  S
C3          C834   1.389   1_455  D
C4           C52   1.550       .  S
C4          C129   1.548       .  S
C4          C118   1.547   1_545  S
C4          C433   1.543   1_545  S
C5           C27   1.549       .  S
C5          C106   1.545       .  S
C5          C141   1.548       .  S
C5          C870   1.549       .  S
C6          C319   1.507       .  S
C6          C347   1.521   1_554  S
C6          C423   1.385       .  D
C7          C305   1.541       .  S
C7          C333   1.527   1_554  S
C7          C422   1.385   1_545  D
N8            N9   1.328       .  A
N8           N14   1.312       .  A
N8          Mn37   2.251       .  S
N9           C16   1.365       .  A
N10          N12   1.324       .  A
N10          N11   1.327       .  A
N10         Mn26   2.261       .  S
N11          C17   1.363       .  A
N12          N13   1.324       .  A
N12         Mn37   2.221       .  S
N13          C17   1.354       .  A
N14          N15   1.315       .  A
N14         Mn26   2.152       .  S
N15          C16   1.344       .  A
C16         C350   1.503       .  S
C17         C420   1.543       .  S
N18          N24   1.323       .  A
N18          N19   1.327       .  A
N18         Mn48   2.259       .  S
N19          C27   1.363       .  A
N20          N21   1.327       .  A
N20          N22   1.314       .  A
N20         Mn26   2.235       .  S
N21          C28   1.359       .  A
N22          N23   1.316       .  A
N22         Mn48   2.164       .  S
N23          C28   1.344       .  A
N24          N25   1.326       .  A
N24         Mn26   2.217       .  S
N25          C27   1.354       .  A
Mn26        Cl50   2.565       .  S
C28         C406   1.488       .  S
N29          N30   1.330       .  A
N29          N35   1.324       .  A
N29         Mn37   2.269       .  S
N30          C38   1.364       .  A
N31          N33   1.314       .  A
N31          N32   1.322       .  A
N31         Mn49   2.219       .  S
N32          C39   1.356       .  A
N33          N34   1.314       .  A
N33         Mn37   2.156       .  S
N34          C39   1.344       .  A
N35          N36   1.323       .  A
N35         Mn49   2.221       .  S
N36          C38   1.354       .  A
Mn37        Cl50   2.570       .  S
C38         C837   1.549       .  S
C39         C389   1.477       .  S
N40          N41   1.319       .  A
N40          N46   1.311       .  A
N40         Mn48   2.223       .  S
N41          C51   1.358       .  A
N42          N43   1.329       .  A
N42          N44   1.324       .  A
N42         Mn49   2.263       .  S
N43          C52   1.363       .  A
N44          N45   1.323       .  A
N44         Mn48   2.214       .  S
N45          C52   1.354       .  A
N46          N47   1.320       .  A
N46         Mn49   2.169       .  S
N47          C51   1.351       .  A
Mn48        Cl50   2.566       .  S
Mn49        Cl50   2.564       .  S
C51         C336   1.506       .  S
N53          N54   1.323       .  A
N53          N59   1.325       .  A
N53         Mn82   2.218       .  S
N54          C61   1.353       .  A
N55          N57   1.312       .  A
N55          N56   1.316       .  A
N55         Mn71   2.156       .  S
N56          C62   1.347       .  A
N57          N58   1.321       .  A
N57         Mn82   2.231       .  S
N58          C62   1.361       .  A
N59          N60   1.329       .  A
N59         Mn71   2.268       .  S
N60          C61   1.363       .  A
C62         C322   1.503       .  S
N63          N69   1.314       .  A
N63          N64   1.319       .  A
N63         Mn93   2.173       .  S
N64          C72   1.348       .  A
N65          N66   1.325       .  A
N65          N67   1.323       .  A
N65         Mn71   2.211       .  S
N66          C73   1.353       .  A
N67          N68   1.328       .  A
N67         Mn93   2.274       .  S
N68          C73   1.366       .  A
N69          N70   1.326       .  A
N69         Mn71   2.250       .  S
N70          C72   1.364       .  A
Mn71        Cl95   2.568       .  S
C72         C378   1.510       .  S
C73        C1024   1.549       .  S
N74          N75   1.322       .  A
N74          N80   1.313       .  A
N74         Mn82   2.187       .  S
N75          C83   1.353       .  A
N76          N78   1.323       .  A
N76          N77   1.323       .  A
N76         Mn94   2.207       .  S
N77          C84   1.353       .  A
N78          N79   1.329       .  A
N78         Mn82   2.268       .  S
N79          C84   1.363       .  A
N80          N81   1.319       .  A
N80         Mn94   2.224       .  S
N81          C83   1.357       .  A
Mn82        Cl95   2.574       .  S
C83         C364   1.505       .  S
C84         C192   1.548   1_455  S
N85          N86   1.326       .  A
N85          N91   1.324       .  A
N85         Mn93   2.228       .  S
N86          C96   1.356       .  A
N87          N88   1.318       .  A
N87          N89   1.314       .  A
N87         Mn94   2.159       .  S
N88          C97   1.344       .  A
N89          N90   1.323       .  A
N89         Mn93   2.237       .  S
N90          C97   1.361       .  A
N91          N92   1.328       .  A
N91         Mn94   2.259       .  S
N92          C96   1.362       .  A
Mn93        Cl95   2.572       .  S
Mn94        Cl95   2.567       .  S
C96         C417   1.553   1_545  S
C97         C308   1.487       .  S
N98          N99   1.325       .  A
N98         N936   1.324       .  A
N98        Mn127   2.244       .  S
N99         C106   1.358       .  A
N100        N101   1.314       .  A
N100        N934   1.312   1_455  A
N100       Mn116   2.161       .  S
N101        C939   1.340       .  A
N102        N103   1.324       .  A
N102        N932   1.312       .  A
N102       Mn127   2.207       .  S
N103        C107   1.358       .  A
N104        N105   1.326       .  A
N104        N930   1.324   1_455  A
N104       Mn116   2.220       .  S
N105        C938   1.357       .  A
C106        N937   1.357       .  A
C107        N933   1.340       .  A
C107        C280   1.482       .  S
N108        N109   1.332       .  A
N108        N530   1.313       .  A
N108       Mn138   2.220       .  S
N109        C533   1.360       .  A
N110        N111   1.322       .  A
N110        N528   1.322   1_545  A
N110       Mn116   2.209       .  S
N111        C118   1.354   1_545  A
N112        N113   1.331       .  A
N112        N526   1.322       .  A
N112       Mn138   2.266       .  S
N113        C534   1.363       .  A
N114        N115   1.314       .  A
N114        N524   1.313   1_545  A
N114       Mn116   2.187       .  S
N115        C117   1.343       .  A
Mn116      Cl972   2.559       .  S
C117        N525   1.360   1_545  A
C117        C249   1.499       .  S
C118        N529   1.363       .  A
N119        N120   1.318       .  A
N119        N541   1.311   1_545  A
N119       Mn127   2.181       .  S
N120        C128   1.351       .  A
N121        N122   1.327       .  A
N121        N539   1.325       .  A
N121       Mn139   2.238       .  S
N122        C545   1.358       .  A
N123        N124   1.326       .  A
N123        N537   1.325   1_545  A
N123       Mn127   2.246       .  S
N124        C129   1.359       .  A
N125        N126   1.318       .  A
N125        N535   1.311       .  A
N125       Mn139   2.192       .  S
N126        C544   1.354       .  A
Mn127      Cl140   2.564       .  S
C128        N542   1.354   1_545  A
C128        C263   1.494       .  S
C129        N538   1.358   1_545  A
N130        N131   1.327       .  A
N130        N968   1.325   1_455  A
N130       Mn138   2.260       .  S
N131        C973   1.361       .  A
N132        N133   1.318       .  A
N132        N966   1.311       .  A
N132       Mn139   2.196       .  S
N133        C142   1.353       .  A
N134        N135   1.323       .  A
N134        N964   1.311   1_455  A
N134       Mn138   2.192       .  S
N135        C974   1.354   1_455  A
N136        N137   1.327       .  A
N136        N962   1.325       .  A
N136       Mn139   2.244       .  S
N137        C141   1.358       .  A
Mn138     Cl1388   2.574       .  S
Mn139      Cl556   2.553       .  S
Cl140      Mn948   2.559       .  S
Cl140     Mn1386   2.574   1_545  S
Cl140      Mn555   2.553   1_545  S
C141        N963   1.361       .  A
C142        N967   1.354       .  A
C142        C291   1.502       .  S
N143        N144   1.329       .  A
N143        N981   1.325       .  A
N143       Mn172   2.255       .  S
N144        C151   1.361       .  A
N145        N146   1.318       .  A
N145        N979   1.311   1_455  A
N145       Mn161   2.197       .  S
N146        C152   1.353   1_455  A
N147        N148   1.323       .  A
N147        N977   1.311       .  A
N147       Mn172   2.192       .  S
N148        C984   1.354       .  A
N149        N150   1.325       .  A
N149        N975   1.325   1_455  A
N149       Mn161   2.250       .  S
N150        C983   1.359   1_455  A
C151       C1024   1.550       .  S
C151        N982   1.359       .  A
C152        N980   1.354       .  A
C152        C207   1.501   1_655  S
N153        N154   1.317       .  A
N153        N575   1.311   1_545  A
N153       Mn183   2.179       .  S
N154        C162   1.351       .  A
N155        N156   1.329       .  A
N155        N573   1.324       .  A
N155       Mn161   2.250       .  S
N156        C579   1.360       .  A
N157        N158   1.325       .  A
N157        N571   1.324   1_545  A
N157       Mn183   2.239       .  S
N158        C163   1.358   1_545  A
N159        N160   1.319       .  A
N159        N569   1.311       .  A
N159       Mn161   2.198       .  S
N160        C578   1.355       .  A
Mn161     Cl1433   2.555   1_455  S
C162        N576   1.355   1_545  A
C162        C637   1.495       .  S
C163        C417   1.550       .  S
C163        N572   1.360       .  A
N164        N165   1.332       .  A
N164        N586   1.314       .  A
N164       Mn172   2.219       .  S
N165        C589   1.359       .  A
N166        N167   1.324       .  A
N166        N584   1.322   1_545  A
N166       Mn184   2.215       .  S
N167        C174   1.355   1_545  A
N168        N169   1.329       .  A
N168        N582   1.322       .  A
N168       Mn172   2.259       .  S
N169        C590   1.362       .  A
N170        N171   1.313       .  A
N170        N580   1.314   1_545  A
N170       Mn184   2.188       .  S
N171        C173   1.343       .  A
Mn172      Cl601   2.573       .  S
C173        N581   1.359   1_545  A
C173        C654   1.499       .  S
C174        C417   1.546       .  S
C174        N585   1.362       .  A
N175        N176   1.326       .  A
N175       N1013   1.323   1_455  A
N175       Mn183   2.239       .  S
N176       C1018   1.357   1_455  A
N177        N178   1.314       .  A
N177       N1011   1.312       .  A
N177       Mn184   2.162       .  S
N178       C1019   1.340       .  A
N179        N180   1.324       .  A
N179       N1009   1.312   1_455  A
N179       Mn183   2.213       .  S
N180        C187   1.358   1_455  A
N181        N182   1.324       .  A
N181       N1007   1.323       .  A
N181       Mn184   2.221       .  S
N182        C186   1.357       .  A
Mn183     Cl1017   2.561   1_445  S
Mn184      Cl185   2.558   1_545  S
Cl185     Mn1409   2.555       .  S
Cl185      Mn588   2.573       .  S
Cl185     Mn1015   2.561   1_565  S
C186       C1024   1.544       .  S
C186       N1008   1.357       .  A
C187       N1010   1.340       .  A
C187        C193   1.484       .  S
C188        C277   1.509   1_655  S
C188        C294   1.511       .  S
C188        C189   1.370       .  D
C189        C196   1.510       .  S
C189        C210   1.510   1_655  S
C190        C252   1.519       .  S
C190        C266   1.484       .  S
C190        C191   1.368       .  D
C191        C224   1.484       .  S
C191        C235   1.518       .  S
C192        C905   1.549       .  S
C192        C983   1.550       .  S
C192       C1018   1.544       .  S
C193        C198   1.404   1_655  A
C193       C1026   1.410       .  A
C194        C195   1.408       .  A
C194       C1025   1.410       .  A
C194        C199   1.449       .  S
C195       C1028   1.413       .  A
C195        C202   1.440       .  S
C196        C197   1.409   1_655  A
C196       C1027   1.413       .  A
C197        C198   1.411       .  A
C197        C200   1.434       .  S
C198        C201   1.444       .  S
C199        N206   1.157       .  T
C200        N205   1.156       .  T
C201        N203   1.155       .  T
C202        N204   1.155       .  T
C207        C208   1.416       .  A
C207       C1044   1.420   1_455  A
C208        C209   1.409       .  A
C208        C213   1.452       .  S
C209        C210   1.410       .  A
C209        C216   1.441       .  S
C210       C1043   1.405   1_455  A
C211        C212   1.413       .  A
C211       C1042   1.405       .  A
C211        C214   1.442       .  S
C212       C1039   1.420       .  A
C212        C215   1.451       .  S
C213        N220   1.157       .  T
C214        N219   1.156       .  T
C215        N217   1.158       .  T
C216        N218   1.154       .  T
C221        C578   1.495       .  S
C221        C222   1.419       .  A
C221        C642   1.424       .  A
C222        C223   1.408       .  A
C222        C227   1.451       .  S
C223        C224   1.410       .  A
C223        C230   1.451       .  S
C224        C641   1.395       .  A
C225        C226   1.404       .  A
C225        C640   1.395       .  A
C225        C228   1.442       .  S
C226        C637   1.424       .  A
C226        C229   1.450       .  S
C227        N234   1.157       .  T
C228        N233   1.155       .  T
C229        N231   1.157       .  T
C230        N232   1.157       .  T
C235        C236   1.416       .  A
C235        C656   1.406       .  A
C236        C237   1.403       .  A
C236        C241   1.440       .  S
C237        C238   1.411       .  A
C237        C244   1.453       .  S
C238        C589   1.499       .  S
C238        C655   1.417       .  A
C239        C240   1.423       .  A
C239        C654   1.417   1_565  A
C239        C242   1.439       .  S
C240        C651   1.406   1_565  A
C240        C243   1.441       .  S
C241        N248   1.156       .  T
C242        N247   1.155       .  T
C243        N245   1.157       .  T
C244        N246   1.157       .  T
C249        C254   1.412       .  A
C249        C666   1.416   1_545  A
C250        C251   1.423       .  A
C250        C665   1.416       .  A
C250        C255   1.439       .  S
C251        C252   1.406       .  A
C251        C258   1.441       .  S
C252        C669   1.416       .  A
C253        C254   1.404       .  A
C253        C668   1.416       .  A
C253        C256   1.441       .  S
C254        C257   1.453       .  S
C255        N262   1.155       .  T
C256        N261   1.156       .  T
C257        N259   1.158       .  T
C258        N260   1.157       .  T
C263        C268   1.423       .  A
C263        C680   1.418   1_545  A
C264        C265   1.407       .  A
C264        C679   1.418       .  A
C264        C269   1.451       .  S
C265        C266   1.410       .  A
C265        C272   1.451       .  S
C266        C683   1.396       .  A
C267        C268   1.404       .  A
C267        C682   1.396       .  A
C267        C270   1.442       .  S
C268        C271   1.450       .  S
C269        N276   1.157       .  T
C270        N275   1.155       .  T
C271        N273   1.157       .  T
C272        N274   1.157       .  T
C277        C278   1.413       .  A
C277       C1114   1.409   1_455  A
C278        C279   1.407       .  A
C278        C283   1.440       .  S
C279       C1112   1.409       .  A
C279        C286   1.449       .  S
C280        C281   1.404       .  A
C280       C1111   1.409       .  A
C281        C282   1.411       .  A
C281        C284   1.444       .  S
C282       C1109   1.409       .  A
C282        C285   1.434       .  S
C283        N290   1.155       .  T
C284        N289   1.155       .  T
C285        N287   1.157       .  T
C286        N288   1.157       .  T
C291        C296   1.417       .  A
C291       C1124   1.420       .  A
C292        C293   1.413       .  A
C292       C1123   1.420   1_455  A
C292        C297   1.451       .  S
C293        C294   1.406   1_455  A
C293        C300   1.442       .  S
C294       C1127   1.411       .  A
C295        C296   1.410       .  A
C295       C1126   1.411       .  A
C295        C298   1.441       .  S
C296        C299   1.452       .  S
C297        N304   1.158       .  T
C298        N303   1.154       .  T
C299        N301   1.157       .  T
C300        N302   1.155       .  T
C305        C306   1.437       .  A
C305        C310   1.416       .  A
C306        C307   1.426       .  A
C306        C311   1.439       .  S
C307        C308   1.400       .  A
C307        C314   1.449       .  S
C308        C309   1.384       .  A
C309        C310   1.389       .  A
C309        C312   1.432       .  S
C310        C313   1.416       .  S
C311        N734   1.156       .  T
C312        N317   1.150       .  T
C313        N315   1.149       .  T
C314        N316   1.158   1_545  T
N318        C727   1.156       .  T
C319        C320   1.411       .  A
C319        C324   1.413       .  A
C320        C321   1.414       .  A
C320        C325   1.442       .  S
C321        C322   1.418       .  A
C321        C328   1.451       .  S
C322        C323   1.412       .  A
C323        C324   1.404       .  A
C323        C326   1.430       .  S
C324        C327   1.450       .  S
C325        N332   1.156       .  T
C326        N331   1.148       .  T
C327        N329   1.157       .  T
C328        N330   1.157       .  T
C333        C334   1.425       .  A
C333        C338   1.420       .  A
C334        C335   1.423       .  A
C334        C339   1.444       .  S
C335        C336   1.414       .  A
C335        C342   1.452       .  S
C336        C337   1.406       .  A
C337        C338   1.409       .  A
C337        C340   1.448       .  S
C338        C341   1.437       .  S
C339        N762   1.156   1_545  T
C340        N345   1.155       .  T
C341        N343   1.155       .  T
C342        N344   1.157       .  T
N346        C755   1.156       .  T
C347        C348   1.416       .  A
C347        C352   1.389       .  A
C348        C349   1.425       .  A
C348        C353   1.444       .  S
C349        C350   1.425       .  A
C349        C356   1.450       .  S
C350        C351   1.405       .  A
C351        C352   1.394       .  A
C351        C354   1.432       .  S
C352        C355   1.430       .  S
C353        N776   1.157       .  T
C354        N359   1.152       .  T
C355        N357   1.152       .  T
C356        N358   1.157       .  T
N360        C769   1.157   1_545  T
C361        C362   1.415       .  A
C361        C366   1.415       .  A
C362        C363   1.406       .  A
C362        C367   1.442       .  S
C363        C364   1.405       .  A
C363        C370   1.437       .  S
C364        C365   1.410       .  A
C365        C366   1.417       .  A
C365        C368   1.452       .  S
C366        C369   1.443       .  S
C367        N374   1.155       .  T
C368        N373   1.157   1_455  T
C369        N371   1.155       .  T
C370        N372   1.152       .  T
C375        C376   1.413       .  A
C375        C380   1.411       .  A
C376        C377   1.420       .  A
C376        C381   1.448       .  S
C377        C378   1.419       .  A
C377        C384   1.448       .  S
C378        C379   1.407       .  A
C379        C380   1.402       .  A
C379        C382   1.430       .  S
C380        C383   1.447       .  S
C381       N1220   1.158       .  T
C382        N387   1.149       .  T
C383        N385   1.155       .  T
C384        N386   1.157       .  T
N388       C1213   1.158       .  T
C389        C390   1.408       .  A
C389        C394   1.406       .  A
C390        C391   1.409       .  A
C390        C395   1.453       .  S
C391        C392   1.418       .  A
C391        C398   1.440   1_455  S
C392        C393   1.417       .  A
C393        C394   1.409       .  A
C393        C396   1.442       .  S
C394        C397   1.446       .  S
C395        N402   1.157   1_455  T
C396        N401   1.158       .  T
C397        N399   1.154       .  T
C398       N1232   1.154       .  T
N400       C1230   1.154       .  T
C403        C404   1.415       .  A
C403        C408   1.416       .  A
C404        C405   1.413       .  A
C404        C409   1.445       .  S
C405        C406   1.410       .  A
C405        C412   1.445       .  S
C406        C407   1.412       .  A
C407        C408   1.413       .  A
C407        C410   1.451       .  S
C408        C411   1.445       .  S
C409        N416   1.157   1_556  T
C410        N415   1.157       .  T
C411       N1245   1.156       .  T
C412        N414   1.155       .  T
N413       C1243   1.156       .  T
C417        C477   1.543       .  S
C418        C791   1.510   1_556  S
C418        C819   1.528       .  S
C418       C1251   1.389       .  D
C419        C777   1.517   1_556  S
C419        C808   1.518       .  S
C419       C1250   1.389   1_455  D
C420        C468   1.550       .  S
C420        C545   1.548       .  S
C420        C534   1.547       .  S
C421        C443   1.549       .  S
C421        C522   1.545       .  S
C421       C1286   1.549       .  S
C421        C557   1.548       .  S
C422        C735   1.507       .  S
C422        C763   1.521   1_554  S
C423        C721   1.541       .  S
C423        C749   1.527   1_554  S
N424        N425   1.328       .  A
N424        N430   1.312       .  A
N424       Mn453   2.251       .  S
N425        C432   1.365       .  A
N426        N428   1.323       .  A
N426        N427   1.327       .  A
N426       Mn442   2.260       .  S
N427        C433   1.363       .  A
N428        N429   1.324       .  A
N428       Mn453   2.220       .  S
N429        C433   1.354       .  A
N430        N431   1.315       .  A
N430       Mn442   2.153       .  S
N431        C432   1.344       .  A
C432        C766   1.503       .  S
N434        N440   1.322       .  A
N434        N435   1.327       .  A
N434       Mn464   2.258       .  S
N435        C443   1.363       .  A
N436        N437   1.327       .  A
N436        N438   1.314       .  A
N436       Mn442   2.236       .  S
N437        C444   1.359       .  A
N438        N439   1.315       .  A
N438       Mn464   2.165       .  S
N439        C444   1.344       .  A
N440        N441   1.326       .  A
N440       Mn442   2.216       .  S
N441        C443   1.354       .  A
Mn442      Cl466   2.564       .  S
C444        C822   1.488       .  S
N445        N446   1.330       .  A
N445        N451   1.324       .  A
N445       Mn453   2.268       .  S
N446        C454   1.364       .  A
N447        N449   1.314       .  A
N447        N448   1.322       .  A
N447       Mn465   2.220       .  S
N448        C455   1.356       .  A
N449        N450   1.314       .  A
N449       Mn453   2.156       .  S
N450        C455   1.344       .  A
N451        N452   1.323       .  A
N451       Mn465   2.220       .  S
N452        C454   1.353       .  A
Mn453      Cl466   2.571       .  S
C454       C1253   1.549       .  S
C455        C805   1.477       .  S
N456        N457   1.319       .  A
N456        N462   1.311       .  A
N456       Mn464   2.225       .  S
N457        C467   1.358       .  A
N458        N459   1.329       .  A
N458        N460   1.324       .  A
N458       Mn465   2.263       .  S
N459        C468   1.363       .  A
N460        N461   1.323       .  A
N460       Mn464   2.214       .  S
N461        C468   1.354       .  A
N462        N463   1.320       .  A
N462       Mn465   2.170       .  S
N463        C467   1.351       .  A
Mn464      Cl466   2.565       .  S
Mn465      Cl466   2.564       .  S
C467        C752   1.506       .  S
N469        N470   1.323       .  A
N469        N475   1.325       .  A
N469       Mn498   2.218       .  S
N470        C477   1.353       .  A
N471        N473   1.312       .  A
N471        N472   1.316       .  A
N471       Mn487   2.156       .  S
N472        C478   1.347       .  A
N473        N474   1.321       .  A
N473       Mn498   2.231       .  S
N474        C478   1.361       .  A
N475        N476   1.329       .  A
N475       Mn487   2.268       .  S
N476        C477   1.363       .  A
C478        C738   1.503       .  S
N479        N485   1.314       .  A
N479        N480   1.319       .  A
N479       Mn509   2.173       .  S
N480        C488   1.348       .  A
N481        N482   1.325       .  A
N481        N483   1.323       .  A
N481       Mn487   2.211       .  S
N482        C489   1.353       .  A
N483        N484   1.328       .  A
N483       Mn509   2.274       .  S
N484        C489   1.366       .  A
N485        N486   1.326       .  A
N485       Mn487   2.250       .  S
N486        C488   1.364       .  A
Mn487      Cl511   2.568       .  S
C488        C794   1.510       .  S
C489       C1440   1.549       .  S
N490        N491   1.322       .  A
N490        N496   1.313       .  A
N490       Mn498   2.186       .  S
N491        C499   1.353       .  A
N492        N494   1.323       .  A
N492        N493   1.323       .  A
N492       Mn510   2.206       .  S
N493        C500   1.353       .  A
N494        N495   1.329       .  A
N494       Mn498   2.268       .  S
N495        C500   1.363       .  A
N496        N497   1.319       .  A
N496       Mn510   2.224       .  S
N497        C499   1.357       .  A
Mn498      Cl511   2.574       .  S
C499        C780   1.504       .  S
C500        C608   1.548   1_455  S
N501        N502   1.326       .  A
N501        N507   1.324       .  A
N501       Mn509   2.228       .  S
N502        C512   1.356       .  A
N503        N504   1.318       .  A
N503        N505   1.314       .  A
N503       Mn510   2.159       .  S
N504        C513   1.344       .  A
N505        N506   1.323       .  A
N505       Mn509   2.237       .  S
N506        C513   1.361       .  A
N507        N508   1.328       .  A
N507       Mn510   2.259       .  S
N508        C512   1.362       .  A
Mn509      Cl511   2.572       .  S
Mn510      Cl511   2.567       .  S
C513        C724   1.487       .  S
N514        N515   1.325       .  A
N514       N1352   1.324       .  A
N514       Mn543   2.243       .  S
N515        C522   1.358       .  A
N516       N1350   1.312   1_455  A
N516        N517   1.314       .  A
N516       Mn532   2.161       .  S
N517       C1355   1.340       .  A
N518       N1348   1.312       .  A
N518        N519   1.324       .  A
N518       Mn543   2.207       .  S
N519        C523   1.358       .  A
N520       N1346   1.324   1_455  A
N520        N521   1.326       .  A
N520       Mn532   2.220       .  S
N521       C1354   1.357       .  A
C522       N1353   1.357       .  A
C523       N1349   1.340       .  A
C523        C696   1.482       .  S
N524        N525   1.332       .  A
N524       Mn554   2.220       .  S
N526        N527   1.322       .  A
N526       Mn532   2.209       .  S
N527        C534   1.354       .  A
N528        N529   1.331       .  A
N528       Mn554   2.266       .  S
N530        N531   1.314       .  A
N530       Mn532   2.187       .  S
N531        C533   1.343       .  A
Mn532     Cl1388   2.559       .  S
C533        C665   1.499       .  S
N535        N536   1.318       .  A
N535       Mn543   2.181       .  S
N536        C544   1.351       .  A
N537        N538   1.327       .  A
N537       Mn555   2.238       .  S
N539        N540   1.326       .  A
N539       Mn543   2.246       .  S
N540        C545   1.359       .  A
N541        N542   1.318       .  A
N541       Mn555   2.192       .  S
Mn543      Cl556   2.563       .  S
C544        C679   1.494       .  S
N546        N547   1.327       .  A
N546       N1384   1.325   1_455  A
N546       Mn554   2.260       .  S
N547       C1389   1.361       .  A
N548        N549   1.318       .  A
N548       N1382   1.311       .  A
N548       Mn555   2.196       .  S
N549        C558   1.353       .  A
N550       N1380   1.311   1_455  A
N550        N551   1.323       .  A
N550       Mn554   2.192       .  S
N551       C1390   1.354   1_455  A
N552       N1378   1.325       .  A
N552        N553   1.327       .  A
N552       Mn555   2.244       .  S
N553        C557   1.358       .  A
Mn554      Cl972   2.574   1_565  S
Cl556     Mn1364   2.559       .  S
Cl556      Mn970   2.574       .  S
C557       N1379   1.362       .  A
C558       N1383   1.354       .  A
C558        C707   1.502       .  S
N559        N560   1.329       .  A
N559       N1397   1.325       .  A
N559       Mn588   2.255       .  S
N560        C567   1.361       .  A
N561       N1395   1.311   1_455  A
N561        N562   1.318       .  A
N561       Mn577   2.197       .  S
N562        C568   1.353   1_455  A
N563       N1393   1.311       .  A
N563        N564   1.322       .  A
N563       Mn588   2.192       .  S
N564       C1400   1.354       .  A
N565       N1391   1.325   1_455  A
N565        N566   1.325       .  A
N565       Mn577   2.250       .  S
N566       C1399   1.359   1_455  A
C567       C1440   1.550       .  S
C567       N1398   1.359       .  A
C568       N1396   1.354       .  A
C568        C623   1.501   1_655  S
N569        N570   1.317       .  A
N569       Mn599   2.179       .  S
N570        C578   1.351       .  A
N571        N572   1.329       .  A
N571       Mn577   2.250       .  S
N573        N574   1.325       .  A
N573       Mn599   2.239       .  S
N574        C579   1.358       .  A
N575        N576   1.319       .  A
N575       Mn577   2.198       .  S
Mn577     Cl1017   2.555   1_455  S
N580        N581   1.332       .  A
N580       Mn588   2.219       .  S
N582        N583   1.324       .  A
N582       Mn600   2.215       .  S
N583        C590   1.355       .  A
N584        N585   1.329       .  A
N584       Mn588   2.259       .  S
N586        N587   1.313       .  A
N586       Mn600   2.188       .  S
N587        C589   1.343       .  A
N591        N592   1.326       .  A
N591       N1429   1.323   1_455  A
N591       Mn599   2.239       .  S
N592       C1434   1.357   1_455  A
N593        N594   1.314       .  A
N593       N1427   1.312       .  A
N593       Mn600   2.162       .  S
N594       C1435   1.340       .  A
N595       N1425   1.312   1_455  A
N595        N596   1.324       .  A
N595       Mn599   2.213       .  S
N596        C603   1.358   1_455  A
N597       N1423   1.323       .  A
N597        N598   1.324       .  A
N597       Mn600   2.221       .  S
N598        C602   1.357       .  A
Mn599     Cl1433   2.561   1_455  S
Mn600      Cl601   2.558       .  S
Cl601      Mn993   2.555       .  S
Cl601     Mn1431   2.561       .  S
C602       C1440   1.544       .  S
C602       N1424   1.357       .  A
C603       N1426   1.340       .  A
C603        C609   1.484       .  S
C604        C693   1.509   1_655  S
C604        C710   1.511       .  S
C604        C605   1.370       .  D
C605        C612   1.510       .  S
C605        C626   1.510   1_655  S
C606        C668   1.519       .  S
C606        C682   1.484       .  S
C606        C607   1.368       .  D
C607        C640   1.484       .  S
C607        C651   1.518       .  S
C608       C1321   1.549       .  S
C608       C1399   1.550       .  S
C608       C1434   1.544       .  S
C609       C1442   1.410       .  A
C609        C614   1.404   1_655  A
C610       C1441   1.410       .  A
C610        C611   1.408       .  A
C610        C615   1.449       .  S
C611       C1444   1.413       .  A
C611        C618   1.440       .  S
C612       C1443   1.413       .  A
C612        C613   1.409   1_655  A
C613        C614   1.411       .  A
C613        C616   1.434       .  S
C614        C617   1.444       .  S
C615        N622   1.157       .  T
C616        N621   1.156       .  T
C617        N619   1.155       .  T
C618        N620   1.155       .  T
C623        C624   1.416       .  A
C623       C1460   1.420   1_455  A
C624        C625   1.409       .  A
C624        C629   1.452       .  S
C625        C626   1.410       .  A
C625        C632   1.441       .  S
C626       C1459   1.405   1_455  A
C627       C1458   1.405       .  A
C627        C628   1.413       .  A
C627        C630   1.442       .  S
C628       C1455   1.420       .  A
C628        C631   1.451       .  S
C629        N636   1.157       .  T
C630        N635   1.156       .  T
C631        N633   1.158       .  T
C632        N634   1.154       .  T
C637        C638   1.419   1_545  A
C638        C639   1.408       .  A
C638        C643   1.451       .  S
C639        C640   1.410   1_565  A
C639        C646   1.451       .  S
C641        C642   1.404       .  A
C641        C644   1.442       .  S
C642        C645   1.450       .  S
C643        N650   1.157       .  T
C644        N649   1.155       .  T
C645        N647   1.157       .  T
C646        N648   1.157       .  T
C651        C652   1.416       .  A
C652        C653   1.403       .  A
C652        C657   1.440       .  S
C653        C654   1.411       .  A
C653        C660   1.453       .  S
C655        C656   1.423       .  A
C655        C658   1.439       .  S
C656        C659   1.441       .  S
C657        N664   1.156       .  T
C658        N663   1.155       .  T
C659        N661   1.157       .  T
C660        N662   1.157       .  T
C665        C670   1.412       .  A
C666        C667   1.423   1_565  A
C666        C671   1.439       .  S
C667        C668   1.406       .  A
C667        C674   1.441   1_545  S
C669        C670   1.404       .  A
C669        C672   1.441       .  S
C670        C673   1.453       .  S
C671        N678   1.155       .  T
C672        N677   1.156       .  T
C673        N675   1.157       .  T
C674        N676   1.157       .  T
C679        C684   1.423       .  A
C680        C681   1.407       .  A
C680        C685   1.451       .  S
C681        C682   1.410   1_565  A
C681        C688   1.451       .  S
C683        C684   1.404       .  A
C683        C686   1.442       .  S
C684        C687   1.450       .  S
C685        N692   1.157       .  T
C686        N691   1.155       .  T
C687        N689   1.157       .  T
C688        N690   1.157       .  T
C693        C694   1.413       .  A
C693       C1530   1.409   1_455  A
C694        C695   1.407       .  A
C694        C699   1.440       .  S
C695       C1528   1.409       .  A
C695        C702   1.449       .  S
C696       C1527   1.409       .  A
C696        C697   1.404       .  A
C697        C698   1.411       .  A
C697        C700   1.444       .  S
C698       C1525   1.409       .  A
C698        C701   1.434       .  S
C699        N706   1.155       .  T
C700        N705   1.155       .  T
C701        N703   1.157       .  T
C702        N704   1.157       .  T
C707       C1540   1.420       .  A
C707        C712   1.417       .  A
C708       C1539   1.420   1_455  A
C708        C709   1.413       .  A
C708        C713   1.451       .  S
C709        C710   1.406   1_455  A
C709        C716   1.442       .  S
C710       C1543   1.411       .  A
C711       C1542   1.411       .  A
C711        C712   1.410       .  A
C711        C714   1.441       .  S
C712        C715   1.452       .  S
C713        N720   1.158       .  T
C714        N719   1.154       .  T
C715        N717   1.157       .  T
C716        N718   1.155       .  T
C721        C722   1.437       .  A
C721        C726   1.416       .  A
C722        C723   1.426       .  A
C722        C727   1.439       .  S
C723        C724   1.400       .  A
C723        C730   1.449       .  S
C724        C725   1.384       .  A
C725        C726   1.389       .  A
C725        C728   1.432       .  S
C726        C729   1.416       .  S
C728        N733   1.150       .  T
C729        N731   1.149       .  T
C730        N732   1.158       .  T
C735        C736   1.411       .  A
C735        C740   1.413       .  A
C736        C737   1.414       .  A
C736        C741   1.442       .  S
C737        C738   1.418       .  A
C737        C744   1.451       .  S
C738        C739   1.412       .  A
C739        C740   1.404       .  A
C739        C742   1.430       .  S
C740        C743   1.450       .  S
C741        N748   1.156       .  T
C742        N747   1.148       .  T
C743        N745   1.157       .  T
C744        N746   1.157       .  T
C749        C750   1.425       .  A
C749        C754   1.420       .  A
C750        C751   1.423       .  A
C750        C755   1.444       .  S
C751        C752   1.414       .  A
C751        C758   1.452       .  S
C752        C753   1.406       .  A
C753        C754   1.409       .  A
C753        C756   1.448       .  S
C754        C757   1.437       .  S
C756        N761   1.155       .  T
C757        N759   1.155       .  T
C758        N760   1.157       .  T
C763        C764   1.416       .  A
C763        C768   1.389       .  A
C764        C765   1.425       .  A
C764        C769   1.444       .  S
C765        C766   1.425       .  A
C765        C772   1.450       .  S
C766        C767   1.406       .  A
C767        C768   1.394       .  A
C767        C770   1.432       .  S
C768        C771   1.430       .  S
C770        N775   1.152       .  T
C771        N773   1.152       .  T
C772        N774   1.157       .  T
C777        C778   1.415       .  A
C777        C782   1.415       .  A
C778        C779   1.406       .  A
C778        C783   1.442       .  S
C779        C780   1.405       .  A
C779        C786   1.437       .  S
C780        C781   1.410       .  A
C781        C782   1.417       .  A
C781        C784   1.452       .  S
C782        C785   1.443       .  S
C783        N790   1.155       .  T
C784        N789   1.157   1_455  T
C785        N787   1.155       .  T
C786        N788   1.152       .  T
C791        C792   1.413       .  A
C791        C796   1.411       .  A
C792        C793   1.420       .  A
C792        C797   1.448       .  S
C793        C794   1.419       .  A
C793        C800   1.448       .  S
C794        C795   1.407       .  A
C795        C796   1.402       .  A
C795        C798   1.430       .  S
C796        C799   1.447       .  S
C797       N1636   1.158       .  T
C798        N803   1.149       .  T
C799        N801   1.155       .  T
C800        N802   1.157       .  T
N804       C1629   1.158       .  T
C805        C806   1.408       .  A
C805        C810   1.406       .  A
C806        C807   1.409       .  A
C806        C811   1.453       .  S
C807        C808   1.418       .  A
C807        C814   1.440   1_455  S
C808        C809   1.417       .  A
C809        C810   1.409       .  A
C809        C812   1.442       .  S
C810        C813   1.446       .  S
C811        N818   1.157   1_455  T
C812        N817   1.158       .  T
C813        N815   1.154       .  T
C814       N1648   1.154       .  T
N816       C1646   1.154       .  T
C819        C820   1.415       .  A
C819        C824   1.416       .  A
C820        C821   1.413       .  A
C820        C825   1.445       .  S
C821        C822   1.410       .  A
C821        C828   1.445       .  S
C822        C823   1.412       .  A
C823        C824   1.413       .  A
C823        C826   1.451       .  S
C824        C827   1.445       .  S
C825        N832   1.157   1_556  T
C826        N831   1.157       .  T
C827       N1661   1.156       .  T
C828        N830   1.155       .  T
N829       C1659   1.156       .  T
C833       C1344   1.553       .  S
C833       C1422   1.546       .  S
C833        C893   1.543       .  S
C833       C1411   1.550       .  S
C834       C1207   1.510   1_556  S
C834       C1235   1.528       .  S
C835       C1193   1.517   1_556  S
C835       C1224   1.518       .  S
C836        C884   1.550       .  S
C836        C961   1.547       .  S
C836       C1265   1.542   1_545  S
C836        C950   1.547   1_545  S
C837        C859   1.549   1_455  S
C837        C938   1.545       .  S
C837        C973   1.548       .  S
C838       C1151   1.507       .  S
C838       C1179   1.521   1_554  S
C838       C1255   1.385       .  D
C839       C1137   1.541       .  S
C839       C1165   1.527   1_554  S
C839       C1254   1.385   1_545  D
N840        N841   1.328       .  A
N840        N846   1.312       .  A
N840       Mn869   2.251       .  S
N841        C848   1.365       .  A
N842        N844   1.324       .  A
N842        N843   1.327       .  A
N842       Mn858   2.261       .  S
N843        C849   1.363       .  A
N844        N845   1.324       .  A
N844       Mn869   2.221       .  S
N845        C849   1.354       .  A
N846        N847   1.315       .  A
N846       Mn858   2.152       .  S
N847        C848   1.344       .  A
C848       C1182   1.503       .  S
C849       C1252   1.542       .  S
N850        N856   1.323       .  A
N850        N851   1.327       .  A
N850       Mn880   2.259       .  S
N851        C859   1.363       .  A
N852        N853   1.327       .  A
N852        N854   1.314       .  A
N852       Mn858   2.235       .  S
N853        C860   1.359       .  A
N854        N855   1.316       .  A
N854       Mn880   2.164       .  S
N855        C860   1.344       .  A
N856        N857   1.326       .  A
N856       Mn858   2.217       .  S
N857        C859   1.354       .  A
Mn858      Cl882   2.565       .  S
C860       C1238   1.488       .  S
N861        N862   1.330       .  A
N861        N867   1.324       .  A
N861       Mn869   2.269       .  S
N862        C870   1.364       .  A
N863        N865   1.314       .  A
N863        N864   1.322       .  A
N863       Mn881   2.219       .  S
N864        C871   1.356       .  A
N865        N866   1.314       .  A
N865       Mn869   2.156       .  S
N866        C871   1.344       .  A
N867        N868   1.323       .  A
N867       Mn881   2.221       .  S
N868        C870   1.354       .  A
Mn869      Cl882   2.570       .  S
C871       C1221   1.477       .  S
N872        N873   1.319       .  A
N872        N878   1.311       .  A
N872       Mn880   2.223       .  S
N873        C883   1.358       .  A
N874        N875   1.329       .  A
N874        N876   1.324       .  A
N874       Mn881   2.263       .  S
N875        C884   1.363       .  A
N876        N877   1.323       .  A
N876       Mn880   2.214       .  S
N877        C884   1.354       .  A
N878        N879   1.320       .  A
N878       Mn881   2.169       .  S
N879        C883   1.351       .  A
Mn880      Cl882   2.566       .  S
Mn881      Cl882   2.564       .  S
C883       C1168   1.506       .  S
N885        N886   1.323       .  A
N885        N891   1.325       .  A
N885       Mn914   2.218       .  S
N886        C893   1.353       .  A
N887        N889   1.312       .  A
N887        N888   1.316       .  A
N887       Mn903   2.156       .  S
N888        C894   1.347       .  A
N889        N890   1.321       .  A
N889       Mn914   2.231       .  S
N890        C894   1.361       .  A
N891        N892   1.329       .  A
N891       Mn903   2.268       .  S
N892        C893   1.363       .  A
C894       C1154   1.503       .  S
N895        N901   1.314       .  A
N895        N896   1.319       .  A
N895       Mn925   2.173       .  S
N896        C904   1.348       .  A
N897        N898   1.325       .  A
N897        N899   1.323       .  A
N897       Mn903   2.211       .  S
N898        C905   1.353       .  A
N899        N900   1.328       .  A
N899       Mn925   2.274       .  S
N900        C905   1.366       .  A
N901        N902   1.326       .  A
N901       Mn903   2.250       .  S
N902        C904   1.364       .  A
Mn903      Cl927   2.568       .  S
C904       C1210   1.510       .  S
N906        N907   1.322       .  A
N906        N912   1.313       .  A
N906       Mn914   2.187       .  S
N907        C915   1.353       .  A
N908        N910   1.323       .  A
N908        N909   1.323       .  A
N908       Mn926   2.207       .  S
N909        C916   1.353       .  A
N910        N911   1.329       .  A
N910       Mn914   2.267       .  S
N911        C916   1.363       .  A
N912        N913   1.319       .  A
N912       Mn926   2.224       .  S
N913        C915   1.357       .  A
Mn914      Cl927   2.574       .  S
C915       C1196   1.505       .  S
C916       C1024   1.548       .  S
N917        N918   1.326       .  A
N917        N923   1.324       .  A
N917       Mn925   2.228       .  S
N918        C928   1.356       .  A
N919        N920   1.318       .  A
N919        N921   1.314       .  A
N919       Mn926   2.159       .  S
N920        C929   1.344       .  A
N921        N922   1.323       .  A
N921       Mn925   2.237       .  S
N922        C929   1.361       .  A
N923        N924   1.328       .  A
N923       Mn926   2.259       .  S
N924        C928   1.362       .  A
Mn925      Cl927   2.572       .  S
Mn926      Cl927   2.567       .  S
C928       C1249   1.553   1_545  S
C929       C1140   1.487       .  S
N930        N931   1.325       .  A
N930       Mn959   2.244       .  S
N931        C938   1.358   1_655  A
N932        N933   1.314       .  A
N932       Mn948   2.161       .  S
N934        N935   1.324       .  A
N934       Mn959   2.207       .  S
N935        C939   1.358   1_655  A
N936        N937   1.326       .  A
N936       Mn948   2.220       .  S
C939       C1112   1.482       .  S
N940       N1362   1.313       .  A
N940        N941   1.332       .  A
N940       Mn970   2.220       .  S
N941       C1365   1.360       .  A
N942        N943   1.322       .  A
N942       N1360   1.322   1_545  A
N942       Mn948   2.209       .  S
N943        C950   1.354   1_545  A
N944       N1358   1.322       .  A
N944        N945   1.331       .  A
N944       Mn970   2.266       .  S
N945       C1366   1.363       .  A
N946       N1356   1.313   1_545  A
N946        N947   1.314       .  A
N946       Mn948   2.187       .  S
N947        C949   1.343       .  A
C949       N1357   1.360   1_545  A
C949       C1081   1.499       .  S
C950       N1361   1.363       .  A
N951        N952   1.318       .  A
N951       N1373   1.311   1_545  A
N951       Mn959   2.181       .  S
N952        C960   1.351       .  A
N953       N1371   1.325       .  A
N953        N954   1.327       .  A
N953       Mn971   2.238       .  S
N954       C1377   1.358       .  A
N955       N1369   1.325   1_545  A
N955        N956   1.326       .  A
N955       Mn959   2.246       .  S
N956        C961   1.359       .  A
N957       N1367   1.311       .  A
N957        N958   1.318       .  A
N957       Mn971   2.192       .  S
N958       C1376   1.354       .  A
Mn959      Cl972   2.563   1_655  S
C960       N1374   1.354   1_545  A
C960       C1095   1.494       .  S
C961       N1370   1.358   1_545  A
N962        N963   1.327       .  A
N962       Mn970   2.260       .  S
N964        N965   1.318       .  A
N964       Mn971   2.196       .  S
N965        C974   1.353       .  A
N966        N967   1.323       .  A
N966       Mn970   2.192       .  S
N968        N969   1.327       .  A
N968       Mn971   2.244       .  S
N969        C973   1.358   1_655  A
Mn971     Cl1388   2.553   1_655  S
Cl972     Mn1387   2.553   1_445  S
C974       C1123   1.502       .  S
N975        N976   1.329       .  A
N975      Mn1004   2.255       .  S
N976        C983   1.361       .  A
N977        N978   1.318       .  A
N977       Mn993   2.197       .  S
N978        C984   1.353       .  A
N979        N980   1.323       .  A
N979      Mn1004   2.192       .  S
N981        N982   1.325       .  A
N981       Mn993   2.250       .  S
C984       C1039   1.501       .  S
N985       N1407   1.311   1_545  A
N985        N986   1.317       .  A
N985      Mn1015   2.179       .  S
N986        C994   1.351       .  A
N987        N988   1.329       .  A
N987       N1405   1.324       .  A
N987       Mn993   2.250       .  S
N988       C1411   1.360       .  A
N989       N1403   1.324   1_545  A
N989        N990   1.325       .  A
N989      Mn1015   2.239       .  S
N990        C995   1.358   1_545  A
N991       N1401   1.311       .  A
N991        N992   1.319       .  A
N991       Mn993   2.198       .  S
N992       C1410   1.355       .  A
C994       N1408   1.355   1_545  A
C994       C1469   1.495       .  S
C995       C1249   1.550       .  S
C995       N1404   1.360       .  A
N996        N997   1.332       .  A
N996       N1418   1.314       .  A
N996      Mn1004   2.219       .  S
N997       C1421   1.359       .  A
N998       N1416   1.322   1_545  A
N998        N999   1.324       .  A
N998      Mn1016   2.215       .  S
N999       C1006   1.355   1_545  A
N1000      N1414   1.322       .  A
N1000      N1001   1.329       .  A
N1000     Mn1004   2.259       .  S
N1001      C1422   1.362       .  A
N1002      N1412   1.314   1_545  A
N1002      N1003   1.313       .  A
N1002     Mn1016   2.188       .  S
N1003      C1005   1.343       .  A
Mn1004    Cl1433   2.573       .  S
C1005      N1413   1.359   1_545  A
C1005      C1486   1.499       .  S
C1006      C1249   1.546       .  S
C1006      N1417   1.362       .  A
N1007      N1008   1.326       .  A
N1007     Mn1015   2.239       .  S
N1009      N1010   1.314       .  A
N1009     Mn1016   2.162       .  S
N1011      N1012   1.324       .  A
N1011     Mn1015   2.213       .  S
N1012      C1019   1.358       .  A
N1013      N1014   1.324       .  A
N1013     Mn1016   2.221       .  S
N1014      C1018   1.357       .  A
Mn1016    Cl1017   2.558   1_545  S
Cl1017    Mn1420   2.573       .  S
C1019      C1025   1.484       .  S
C1020      C1109   1.509       .  S
C1020      C1126   1.511       .  S
C1020      C1021   1.371       .  D
C1021      C1028   1.510       .  S
C1021      C1042   1.510       .  S
C1022      C1084   1.519       .  S
C1022      C1098   1.484       .  S
C1022      C1023   1.368       .  D
C1023      C1056   1.484       .  S
C1023      C1067   1.518       .  S
C1025      C1030   1.404       .  A
C1026      C1027   1.408       .  A
C1026      C1031   1.449       .  S
C1027      C1034   1.440       .  S
C1028      C1029   1.409       .  A
C1029      C1030   1.411       .  A
C1029      C1032   1.434       .  S
C1030      C1033   1.444       .  S
C1031      N1038   1.157       .  T
C1032      N1037   1.156       .  T
C1033      N1035   1.155       .  T
C1034      N1036   1.155       .  T
C1039      C1040   1.416       .  A
C1040      C1041   1.409       .  A
C1040      C1045   1.452       .  S
C1041      C1042   1.410       .  A
C1041      C1048   1.441       .  S
C1043      C1044   1.413       .  A
C1043      C1046   1.442       .  S
C1044      C1047   1.451       .  S
C1045      N1052   1.157       .  T
C1046      N1051   1.156       .  T
C1047      N1049   1.158       .  T
C1048      N1050   1.154       .  T
C1053      C1410   1.495       .  S
C1053      C1054   1.419       .  A
C1053      C1474   1.424       .  A
C1054      C1055   1.408       .  A
C1054      C1059   1.451       .  S
C1055      C1056   1.410       .  A
C1055      C1062   1.451       .  S
C1056      C1473   1.395       .  A
C1057      C1472   1.395       .  A
C1057      C1058   1.404       .  A
C1057      C1060   1.442       .  S
C1058      C1469   1.424       .  A
C1058      C1061   1.450       .  S
C1059      N1066   1.157       .  T
C1060      N1065   1.155       .  T
C1061      N1063   1.157       .  T
C1062      N1064   1.157       .  T
C1067      C1068   1.416       .  A
C1067      C1488   1.406       .  A
C1068      C1069   1.403       .  A
C1068      C1073   1.440       .  S
C1069      C1070   1.411       .  A
C1069      C1076   1.453       .  S
C1070      C1421   1.499       .  S
C1070      C1487   1.417       .  A
C1071      C1486   1.417   1_565  A
C1071      C1072   1.423       .  A
C1071      C1074   1.439       .  S
C1072      C1483   1.406   1_565  A
C1072      C1075   1.441       .  S
C1073      N1080   1.156       .  T
C1074      N1079   1.155       .  T
C1075      N1077   1.157       .  T
C1076      N1078   1.157       .  T
C1081      C1498   1.416   1_545  A
C1081      C1086   1.412       .  A
C1082      C1497   1.416       .  A
C1082      C1083   1.423       .  A
C1082      C1087   1.439       .  S
C1083      C1084   1.406       .  A
C1083      C1090   1.441       .  S
C1084      C1501   1.416       .  A
C1085      C1500   1.416       .  A
C1085      C1086   1.404       .  A
C1085      C1088   1.441       .  S
C1086      C1089   1.453       .  S
C1087      N1094   1.155       .  T
C1088      N1093   1.156       .  T
C1089      N1091   1.158       .  T
C1090      N1092   1.157       .  T
C1095      C1512   1.418   1_545  A
C1095      C1100   1.423       .  A
C1096      C1511   1.418       .  A
C1096      C1097   1.407       .  A
C1096      C1101   1.451       .  S
C1097      C1098   1.410       .  A
C1097      C1104   1.451       .  S
C1098      C1515   1.396       .  A
C1099      C1514   1.396       .  A
C1099      C1100   1.404       .  A
C1099      C1102   1.442       .  S
C1100      C1103   1.450       .  S
C1101      N1108   1.157       .  T
C1102      N1107   1.155       .  T
C1103      N1105   1.157       .  T
C1104      N1106   1.157       .  T
C1109      C1110   1.413       .  A
C1110      C1111   1.407       .  A
C1110      C1115   1.440       .  S
C1111      C1118   1.449       .  S
C1112      C1113   1.404   1_455  A
C1113      C1114   1.411       .  A
C1113      C1116   1.444       .  S
C1114      C1117   1.434       .  S
C1115      N1122   1.155       .  T
C1116      N1121   1.155       .  T
C1117      N1119   1.157       .  T
C1118      N1120   1.157       .  T
C1123      C1128   1.417       .  A
C1124      C1125   1.413       .  A
C1124      C1129   1.451       .  S
C1125      C1126   1.406       .  A
C1125      C1132   1.442       .  S
C1127      C1128   1.410       .  A
C1127      C1130   1.441       .  S
C1128      C1131   1.452       .  S
C1129      N1136   1.158       .  T
C1130      N1135   1.154       .  T
C1131      N1133   1.157       .  T
C1132      N1134   1.155       .  T
C1137      C1138   1.437       .  A
C1137      C1142   1.416       .  A
C1138      C1139   1.426       .  A
C1138      C1143   1.439       .  S
C1139      C1140   1.400       .  A
C1139      C1146   1.449       .  S
C1140      C1141   1.384       .  A
C1141      C1142   1.389       .  A
C1141      C1144   1.432       .  S
C1142      C1145   1.416       .  S
C1143      N1566   1.156       .  T
C1144      N1149   1.150       .  T
C1145      N1147   1.149       .  T
C1146      N1148   1.158   1_545  T
N1150      C1559   1.156       .  T
C1151      C1152   1.411       .  A
C1151      C1156   1.413       .  A
C1152      C1153   1.414       .  A
C1152      C1157   1.442       .  S
C1153      C1154   1.418       .  A
C1153      C1160   1.451       .  S
C1154      C1155   1.412       .  A
C1155      C1156   1.404       .  A
C1155      C1158   1.430       .  S
C1156      C1159   1.450       .  S
C1157      N1164   1.156       .  T
C1158      N1163   1.148       .  T
C1159      N1161   1.157       .  T
C1160      N1162   1.157       .  T
C1165      C1166   1.425       .  A
C1165      C1170   1.420       .  A
C1166      C1167   1.423       .  A
C1166      C1171   1.444       .  S
C1167      C1168   1.414       .  A
C1167      C1174   1.452       .  S
C1168      C1169   1.406       .  A
C1169      C1170   1.409       .  A
C1169      C1172   1.448       .  S
C1170      C1173   1.437       .  S
C1171      N1594   1.156   1_545  T
C1172      N1177   1.155       .  T
C1173      N1175   1.155       .  T
C1174      N1176   1.157       .  T
N1178      C1587   1.156       .  T
C1179      C1180   1.416       .  A
C1179      C1184   1.389       .  A
C1180      C1181   1.425       .  A
C1180      C1185   1.444       .  S
C1181      C1182   1.425       .  A
C1181      C1188   1.450       .  S
C1182      C1183   1.405       .  A
C1183      C1184   1.394       .  A
C1183      C1186   1.432       .  S
C1184      C1187   1.430       .  S
C1185      N1608   1.157       .  T
C1186      N1191   1.152       .  T
C1187      N1189   1.152       .  T
C1188      N1190   1.157       .  T
N1192      C1601   1.157   1_545  T
C1193      C1194   1.415       .  A
C1193      C1198   1.415       .  A
C1194      C1195   1.406       .  A
C1194      C1199   1.442       .  S
C1195      C1196   1.405       .  A
C1195      C1202   1.437       .  S
C1196      C1197   1.410       .  A
C1197      C1198   1.417       .  A
C1197      C1200   1.452       .  S
C1198      C1201   1.443       .  S
C1199      N1206   1.155       .  T
C1200      N1205   1.157       .  T
C1201      N1203   1.155       .  T
C1202      N1204   1.152       .  T
C1207      C1208   1.413       .  A
C1207      C1212   1.411       .  A
C1208      C1209   1.420       .  A
C1208      C1213   1.448       .  S
C1209      C1210   1.419       .  A
C1209      C1216   1.448       .  S
C1210      C1211   1.407       .  A
C1211      C1212   1.402       .  A
C1211      C1214   1.430       .  S
C1212      C1215   1.447       .  S
C1214      N1219   1.149       .  T
C1215      N1217   1.155       .  T
C1216      N1218   1.157       .  T
C1221      C1222   1.408       .  A
C1221      C1226   1.406       .  A
C1222      C1223   1.409       .  A
C1222      C1227   1.453       .  S
C1223      C1224   1.418       .  A
C1223      C1230   1.440       .  S
C1224      C1225   1.417       .  A
C1225      C1226   1.409       .  A
C1225      C1228   1.442       .  S
C1226      C1229   1.446       .  S
C1227      N1234   1.157       .  T
C1228      N1233   1.158       .  T
C1229      N1231   1.154       .  T
C1235      C1236   1.415       .  A
C1235      C1240   1.416       .  A
C1236      C1237   1.413       .  A
C1236      C1241   1.445       .  S
C1237      C1238   1.410       .  A
C1237      C1244   1.445       .  S
C1238      C1239   1.412       .  A
C1239      C1240   1.413       .  A
C1239      C1242   1.451       .  S
C1240      C1243   1.445   1_655  S
C1241      N1248   1.157   1_556  T
C1242      N1247   1.157   1_655  T
C1244      N1246   1.155       .  T
C1249      C1309   1.543       .  S
C1250      C1623   1.511   1_556  S
C1250      C1651   1.528       .  S
C1251      C1609   1.517   1_556  S
C1251      C1640   1.518       .  S
C1252      C1300   1.549       .  S
C1252      C1377   1.547       .  S
C1252      C1366   1.547       .  S
C1253      C1275   1.549   1_455  S
C1253      C1354   1.545       .  S
C1253      C1389   1.548       .  S
C1254      C1567   1.507       .  S
C1254      C1595   1.521   1_554  S
C1255      C1553   1.541       .  S
C1255      C1581   1.527   1_554  S
N1256      N1257   1.328       .  A
N1256      N1262   1.312       .  A
N1256     Mn1285   2.251       .  S
N1257      C1264   1.365       .  A
N1258      N1260   1.324       .  A
N1258      N1259   1.327       .  A
N1258     Mn1274   2.261       .  S
N1259      C1265   1.363       .  A
N1260      N1261   1.324       .  A
N1260     Mn1285   2.221       .  S
N1261      C1265   1.354       .  A
N1262      N1263   1.315       .  A
N1262     Mn1274   2.152       .  S
N1263      C1264   1.344       .  A
C1264      C1598   1.503       .  S
N1266      N1272   1.323       .  A
N1266      N1267   1.327       .  A
N1266     Mn1296   2.259       .  S
N1267      C1275   1.363       .  A
N1268      N1269   1.327       .  A
N1268      N1270   1.314       .  A
N1268     Mn1274   2.235       .  S
N1269      C1276   1.359       .  A
N1270      N1271   1.316       .  A
N1270     Mn1296   2.164       .  S
N1271      C1276   1.344       .  A
N1272      N1273   1.326       .  A
N1272     Mn1274   2.217       .  S
N1273      C1275   1.354       .  A
Mn1274    Cl1298   2.565       .  S
C1276      C1654   1.488       .  S
N1277      N1278   1.330       .  A
N1277      N1283   1.324       .  A
N1277     Mn1285   2.269       .  S
N1278      C1286   1.364       .  A
N1279      N1281   1.314       .  A
N1279      N1280   1.322       .  A
N1279     Mn1297   2.219       .  S
N1280      C1287   1.356       .  A
N1281      N1282   1.314       .  A
N1281     Mn1285   2.156       .  S
N1282      C1287   1.344       .  A
N1283      N1284   1.323       .  A
N1283     Mn1297   2.221       .  S
N1284      C1286   1.354       .  A
Mn1285    Cl1298   2.570       .  S
C1287      C1637   1.477       .  S
N1288      N1289   1.319       .  A
N1288      N1294   1.311       .  A
N1288     Mn1296   2.223       .  S
N1289      C1299   1.358       .  A
N1290      N1291   1.329       .  A
N1290      N1292   1.324       .  A
N1290     Mn1297   2.263       .  S
N1291      C1300   1.363       .  A
N1292      N1293   1.323       .  A
N1292     Mn1296   2.214       .  S
N1293      C1300   1.354       .  A
N1294      N1295   1.320       .  A
N1294     Mn1297   2.169       .  S
N1295      C1299   1.351       .  A
Mn1296    Cl1298   2.566       .  S
Mn1297    Cl1298   2.564       .  S
C1299      C1584   1.506       .  S
N1301      N1302   1.323       .  A
N1301      N1307   1.325       .  A
N1301     Mn1330   2.218       .  S
N1302      C1309   1.353       .  A
N1303      N1305   1.312       .  A
N1303      N1304   1.316       .  A
N1303     Mn1319   2.156       .  S
N1304      C1310   1.347       .  A
N1305      N1306   1.321       .  A
N1305     Mn1330   2.231       .  S
N1306      C1310   1.361       .  A
N1307      N1308   1.329       .  A
N1307     Mn1319   2.268       .  S
N1308      C1309   1.363       .  A
C1310      C1570   1.503       .  S
N1311      N1317   1.314       .  A
N1311      N1312   1.319       .  A
N1311     Mn1341   2.173       .  S
N1312      C1320   1.348       .  A
N1313      N1314   1.325       .  A
N1313      N1315   1.323       .  A
N1313     Mn1319   2.211       .  S
N1314      C1321   1.353       .  A
N1315      N1316   1.328       .  A
N1315     Mn1341   2.274       .  S
N1316      C1321   1.366       .  A
N1317      N1318   1.326       .  A
N1317     Mn1319   2.250       .  S
N1318      C1320   1.364       .  A
Mn1319    Cl1343   2.568       .  S
C1320      C1626   1.510       .  S
N1322      N1323   1.322       .  A
N1322      N1328   1.313       .  A
N1322     Mn1330   2.186       .  S
N1323      C1331   1.353       .  A
N1324      N1326   1.323       .  A
N1324      N1325   1.323       .  A
N1324     Mn1342   2.207       .  S
N1325      C1332   1.353       .  A
N1326      N1327   1.329       .  A
N1326     Mn1330   2.268       .  S
N1327      C1332   1.363       .  A
N1328      N1329   1.319       .  A
N1328     Mn1342   2.224       .  S
N1329      C1331   1.357       .  A
Mn1330    Cl1343   2.574       .  S
C1331      C1612   1.505       .  S
C1332      C1440   1.548       .  S
N1333      N1334   1.326       .  A
N1333      N1339   1.324       .  A
N1333     Mn1341   2.228       .  S
N1334      C1344   1.356       .  A
N1335      N1336   1.318       .  A
N1335      N1337   1.314       .  A
N1335     Mn1342   2.159       .  S
N1336      C1345   1.344       .  A
N1337      N1338   1.323       .  A
N1337     Mn1341   2.237       .  S
N1338      C1345   1.361       .  A
N1339      N1340   1.328       .  A
N1339     Mn1342   2.259       .  S
N1340      C1344   1.362       .  A
Mn1341    Cl1343   2.572       .  S
Mn1342    Cl1343   2.567       .  S
C1345      C1556   1.487       .  S
N1346      N1347   1.325       .  A
N1346     Mn1375   2.244       .  S
N1347      C1354   1.358   1_655  A
N1348      N1349   1.314       .  A
N1348     Mn1364   2.161       .  S
N1350      N1351   1.324       .  A
N1350     Mn1375   2.207       .  S
N1351      C1355   1.358   1_655  A
N1352      N1353   1.326       .  A
N1352     Mn1364   2.220       .  S
C1355      C1528   1.482       .  S
N1356      N1357   1.332       .  A
N1356     Mn1386   2.220       .  S
N1358      N1359   1.322       .  A
N1358     Mn1364   2.209       .  S
N1359      C1366   1.354       .  A
N1360      N1361   1.331       .  A
N1360     Mn1386   2.266       .  S
N1362      N1363   1.314       .  A
N1362     Mn1364   2.187       .  S
N1363      C1365   1.343       .  A
C1365      C1497   1.499       .  S
N1367      N1368   1.318       .  A
N1367     Mn1375   2.181       .  S
N1368      C1376   1.351       .  A
N1369      N1370   1.327       .  A
N1369     Mn1387   2.238       .  S
N1371      N1372   1.326       .  A
N1371     Mn1375   2.246       .  S
N1372      C1377   1.359       .  A
N1373      N1374   1.318       .  A
N1373     Mn1387   2.192       .  S
Mn1375    Cl1388   2.564   1_655  S
C1376      C1511   1.494       .  S
N1378      N1379   1.327       .  A
N1378     Mn1386   2.260       .  S
N1380      N1381   1.318       .  A
N1380     Mn1387   2.196       .  S
N1381      C1390   1.353       .  A
N1382      N1383   1.323       .  A
N1382     Mn1386   2.192       .  S
N1384      N1385   1.327       .  A
N1384     Mn1387   2.244       .  S
N1385      C1389   1.358   1_655  A
C1390      C1539   1.502       .  S
N1391      N1392   1.329       .  A
N1391     Mn1420   2.255       .  S
N1392      C1399   1.361       .  A
N1393      N1394   1.318       .  A
N1393     Mn1409   2.197       .  S
N1394      C1400   1.353       .  A
N1395      N1396   1.322       .  A
N1395     Mn1420   2.192       .  S
N1397      N1398   1.325       .  A
N1397     Mn1409   2.250       .  S
C1400      C1455   1.501       .  S
N1401      N1402   1.317       .  A
N1401     Mn1431   2.179       .  S
N1402      C1410   1.351       .  A
N1403      N1404   1.329       .  A
N1403     Mn1409   2.250       .  S
N1405      N1406   1.325       .  A
N1405     Mn1431   2.239       .  S
N1406      C1411   1.358       .  A
N1407      N1408   1.319       .  A
N1407     Mn1409   2.198       .  S
N1412      N1413   1.332       .  A
N1412     Mn1420   2.219       .  S
N1414      N1415   1.324       .  A
N1414     Mn1432   2.215       .  S
N1415      C1422   1.355       .  A
N1416      N1417   1.329       .  A
N1416     Mn1420   2.259       .  S
N1418      N1419   1.313       .  A
N1418     Mn1432   2.188       .  S
N1419      C1421   1.343       .  A
N1423      N1424   1.326       .  A
N1423     Mn1431   2.239       .  S
N1425      N1426   1.314       .  A
N1425     Mn1432   2.162       .  S
N1427      N1428   1.324       .  A
N1427     Mn1431   2.213       .  S
N1428      C1435   1.358       .  A
N1429      N1430   1.324       .  A
N1429     Mn1432   2.221       .  S
N1430      C1434   1.357       .  A
Mn1432    Cl1433   2.558       .  S
C1435      C1441   1.484       .  S
C1436      C1525   1.509       .  S
C1436      C1542   1.511       .  S
C1436      C1437   1.370       .  D
C1437      C1444   1.510       .  S
C1437      C1458   1.510       .  S
C1438      C1500   1.519       .  S
C1438      C1514   1.484       .  S
C1438      C1439   1.368       .  D
C1439      C1472   1.484       .  S
C1439      C1483   1.518       .  S
C1441      C1446   1.404       .  A
C1442      C1443   1.408       .  A
C1442      C1447   1.449       .  S
C1443      C1450   1.440       .  S
C1444      C1445   1.409       .  A
C1445      C1446   1.411       .  A
C1445      C1448   1.434       .  S
C1446      C1449   1.444       .  S
C1447      N1454   1.157       .  T
C1448      N1453   1.156       .  T
C1449      N1451   1.155       .  T
C1450      N1452   1.155       .  T
C1455      C1456   1.416       .  A
C1456      C1457   1.409       .  A
C1456      C1461   1.452       .  S
C1457      C1458   1.410       .  A
C1457      C1464   1.441       .  S
C1459      C1460   1.413       .  A
C1459      C1462   1.442       .  S
C1460      C1463   1.451       .  S
C1461      N1468   1.157       .  T
C1462      N1467   1.156       .  T
C1463      N1465   1.158       .  T
C1464      N1466   1.154       .  T
C1469      C1470   1.419   1_545  A
C1470      C1471   1.408       .  A
C1470      C1475   1.451       .  S
C1471      C1472   1.410   1_565  A
C1471      C1478   1.451       .  S
C1473      C1474   1.404       .  A
C1473      C1476   1.442       .  S
C1474      C1477   1.450       .  S
C1475      N1482   1.157       .  T
C1476      N1481   1.155       .  T
C1477      N1479   1.157       .  T
C1478      N1480   1.157       .  T
C1483      C1484   1.416       .  A
C1484      C1485   1.403       .  A
C1484      C1489   1.440       .  S
C1485      C1486   1.411       .  A
C1485      C1492   1.453       .  S
C1487      C1488   1.423       .  A
C1487      C1490   1.439       .  S
C1488      C1491   1.441       .  S
C1489      N1496   1.156       .  T
C1490      N1495   1.155       .  T
C1491      N1493   1.157       .  T
C1492      N1494   1.157       .  T
C1497      C1502   1.412       .  A
C1498      C1499   1.423   1_565  A
C1498      C1503   1.439       .  S
C1499      C1500   1.406       .  A
C1499      C1506   1.441   1_545  S
C1501      C1502   1.404       .  A
C1501      C1504   1.441       .  S
C1502      C1505   1.453       .  S
C1503      N1510   1.155       .  T
C1504      N1509   1.156       .  T
C1505      N1507   1.158       .  T
C1506      N1508   1.157       .  T
C1511      C1516   1.423       .  A
C1512      C1513   1.407       .  A
C1512      C1517   1.451       .  S
C1513      C1514   1.410   1_565  A
C1513      C1520   1.451       .  S
C1515      C1516   1.404       .  A
C1515      C1518   1.442       .  S
C1516      C1519   1.450       .  S
C1517      N1524   1.157       .  T
C1518      N1523   1.155       .  T
C1519      N1521   1.157       .  T
C1520      N1522   1.157       .  T
C1525      C1526   1.413       .  A
C1526      C1527   1.407       .  A
C1526      C1531   1.440       .  S
C1527      C1534   1.449       .  S
C1528      C1529   1.404   1_455  A
C1529      C1530   1.411       .  A
C1529      C1532   1.444       .  S
C1530      C1533   1.434       .  S
C1531      N1538   1.155       .  T
C1532      N1537   1.155       .  T
C1533      N1535   1.157       .  T
C1534      N1536   1.157       .  T
C1539      C1544   1.417       .  A
C1540      C1541   1.413       .  A
C1540      C1545   1.451       .  S
C1541      C1542   1.406       .  A
C1541      C1548   1.442       .  S
C1543      C1544   1.410       .  A
C1543      C1546   1.441       .  S
C1544      C1547   1.452       .  S
C1545      N1552   1.158       .  T
C1546      N1551   1.154       .  T
C1547      N1549   1.157       .  T
C1548      N1550   1.155       .  T
C1553      C1554   1.437       .  A
C1553      C1558   1.416       .  A
C1554      C1555   1.426       .  A
C1554      C1559   1.439       .  S
C1555      C1556   1.400       .  A
C1555      C1562   1.449       .  S
C1556      C1557   1.384       .  A
C1557      C1558   1.389       .  A
C1557      C1560   1.432       .  S
C1558      C1561   1.416       .  S
C1560      N1565   1.150       .  T
C1561      N1563   1.149       .  T
C1562      N1564   1.158       .  T
C1567      C1568   1.411       .  A
C1567      C1572   1.413       .  A
C1568      C1569   1.414       .  A
C1568      C1573   1.442       .  S
C1569      C1570   1.418       .  A
C1569      C1576   1.451       .  S
C1570      C1571   1.412       .  A
C1571      C1572   1.404       .  A
C1571      C1574   1.430       .  S
C1572      C1575   1.450       .  S
C1573      N1580   1.156       .  T
C1574      N1579   1.148       .  T
C1575      N1577   1.157       .  T
C1576      N1578   1.157       .  T
C1581      C1582   1.425       .  A
C1581      C1586   1.420       .  A
C1582      C1583   1.423       .  A
C1582      C1587   1.444       .  S
C1583      C1584   1.414       .  A
C1583      C1590   1.452       .  S
C1584      C1585   1.406       .  A
C1585      C1586   1.409       .  A
C1585      C1588   1.448       .  S
C1586      C1589   1.437       .  S
C1588      N1593   1.155       .  T
C1589      N1591   1.155       .  T
C1590      N1592   1.157       .  T
C1595      C1596   1.416       .  A
C1595      C1600   1.389       .  A
C1596      C1597   1.425       .  A
C1596      C1601   1.444       .  S
C1597      C1598   1.425       .  A
C1597      C1604   1.450       .  S
C1598      C1599   1.405       .  A
C1599      C1600   1.394       .  A
C1599      C1602   1.432       .  S
C1600      C1603   1.430       .  S
C1602      N1607   1.152       .  T
C1603      N1605   1.152       .  T
C1604      N1606   1.157       .  T
C1609      C1610   1.415       .  A
C1609      C1614   1.415       .  A
C1610      C1611   1.406       .  A
C1610      C1615   1.442       .  S
C1611      C1612   1.405       .  A
C1611      C1618   1.437       .  S
C1612      C1613   1.410       .  A
C1613      C1614   1.417       .  A
C1613      C1616   1.452       .  S
C1614      C1617   1.443       .  S
C1615      N1622   1.155       .  T
C1616      N1621   1.157       .  T
C1617      N1619   1.155       .  T
C1618      N1620   1.152       .  T
C1623      C1624   1.413       .  A
C1623      C1628   1.411       .  A
C1624      C1625   1.421       .  A
C1624      C1629   1.448       .  S
C1625      C1626   1.419       .  A
C1625      C1632   1.448       .  S
C1626      C1627   1.407       .  A
C1627      C1628   1.402       .  A
C1627      C1630   1.430       .  S
C1628      C1631   1.447       .  S
C1630      N1635   1.149       .  T
C1631      N1633   1.155       .  T
C1632      N1634   1.157       .  T
C1637      C1638   1.408       .  A
C1637      C1642   1.406       .  A
C1638      C1639   1.409       .  A
C1638      C1643   1.453       .  S
C1639      C1640   1.418       .  A
C1639      C1646   1.440       .  S
C1640      C1641   1.417       .  A
C1641      C1642   1.409       .  A
C1641      C1644   1.442       .  S
C1642      C1645   1.446       .  S
C1643      N1650   1.157       .  T
C1644      N1649   1.158       .  T
C1645      N1647   1.154       .  T
C1651      C1652   1.416       .  A
C1651      C1656   1.416       .  A
C1652      C1653   1.413       .  A
C1652      C1657   1.445       .  S
C1653      C1654   1.410       .  A
C1653      C1660   1.445       .  S
C1654      C1655   1.412       .  A
C1655      C1656   1.413       .  A
C1655      C1658   1.451       .  S
C1656      C1659   1.445   1_655  S
C1657      N1664   1.157   1_556  T
C1658      N1663   1.157   1_655  T
C1660      N1662   1.155       .  T
