geometry optimzed in LAMMPS
_audit_creation_date              2020-12-01 
_audit_creation_method            'lammps2cif' 
_symmetry_space_group_name_H-M    'P1' 
_symmetry_Int_Tables_number       1 
_symmetry_cell_setting            triclinic 
loop_ 
_symmetry_equiv_pos_as_xyz 
  x,y,z 
_cell_length_a                    50.12399728 
_cell_length_b                    50.19301936467032 
_cell_length_c                    30.379159272198713 
_cell_angle_alpha                 89.72806709898514 
_cell_angle_beta                  90.2466810260856 
_cell_angle_gamma                 122.82723752357361 
loop_ 
_atom_site_label 
_atom_site_type_symbol 
_atom_site_fract_x 
_atom_site_fract_y 
_atom_site_fract_z 
_atom_site_charge 
O1          O  0.50791512  0.53963884  0.31826129    -0.74500
O2          O  0.53728527  0.50759221  0.22964088    -0.74500
O3          O  0.53751132  0.50811922  0.31859956    -0.74600
O4          O  0.50743980  0.53916933  0.22896497    -0.74600
O5          O  0.55437043  0.58493550  0.22823690    -0.74600
O6          O  0.58426234  0.55401919  0.31851882    -0.74600
O7          O  0.58416874  0.55341907  0.22946702    -0.74500
O8          O  0.55468475  0.58567788  0.31746898    -0.74600
Ni9        Ni  0.52085707  0.52201800  0.27385342     1.25400
Ni10       Ni  0.57102665  0.57116757  0.27337626     1.25400
C11         C  0.52661550  0.56780251  0.33296518     0.87700
C12         C  0.56564343  0.52518278  0.21491310     0.87600
C13         C  0.56572206  0.52589982  0.33365102     0.87600
C14         C  0.52603333  0.56707047  0.21335975     0.90400
C15         C  0.82925825  0.38971180  0.48535312     0.03000
C16         C  0.84291982  0.38684846  0.03381869    -0.13100
C17         C  0.87513763  0.39736964  0.03475553     0.00500
C18         C  0.89269027  0.40735604  0.48992654    -0.11600
C19         C  0.87840260  0.40388798  0.44889004     0.03000
C20         C  0.84666754  0.39491402  0.44662135    -0.11100
H21         H  0.83036578  0.38322771  0.06445018     0.08600
H22         H  0.91739236  0.41471439  0.49170180     0.06200
H23         H  0.83548098  0.39139776  0.41473152     0.06000
C24         C  0.62357824  0.45317160  0.51840256     0.03000
C25         C  0.61685990  0.46407377  0.47985402    -0.13100
C26         C  0.60659661  0.48495171  0.48225973     0.00500
C27         C  0.60252104  0.49466038  0.52326329    -0.11600
C28         C  0.60542339  0.48316911  0.06742167     0.03000
C29         C  0.61568696  0.46214740  0.06800717    -0.11100
H30         H  0.61924122  0.45605092  0.44790681     0.08600
H31         H  0.59374160  0.51018320  0.52520605     0.06200
H32         H  0.61991648  0.45462086  0.09930279     0.06000
C33         C  0.65774067  0.36145040  0.49171201     0.03000
C34         C  0.63315743  0.32940113  0.48722571    -0.13100
C35         C  0.64001203  0.30601360  0.48097468     0.00500
C36         C  0.67187215  0.31507577  0.47875448    -0.11600
C37         C  0.69658021  0.34697533  0.48364788     0.03000
C38         C  0.68931591  0.36990437  0.49041892    -0.11100
H39         H  0.60866947  0.32259115  0.48945322     0.08600
H40         H  0.67742263  0.29726865  0.47337556     0.06200
H41         H  0.70838807  0.39432323  0.49594287     0.06000
C42         C  0.53885645  0.17275541  0.48292686     0.03000
C43         C  0.52279979  0.15687631  0.02986071    -0.13100
C44         C  0.49926330  0.12444666  0.02887048     0.00500
C45         C  0.49361360  0.10723050  0.48517189    -0.11600
C46         C  0.50561079  0.12244376  0.44453435     0.03000
C47         C  0.52812946  0.15529244  0.44357019    -0.11100
H48         H  0.53170252  0.16869221  0.06125846     0.08600
H49         H  0.47754368  0.08167163  0.48619391     0.06200
H50         H  0.53790228  0.16707440  0.41234522     0.06000
O51         O  0.45493467  0.96725617  0.27863026    -0.74500
O52         O  0.48123897  0.03104133  0.19013351    -0.74500
O53         O  0.48218652  0.03086559  0.27921393    -0.74600
O54         O  0.45385978  0.96739374  0.18973611    -0.74600
O55         O  0.40609253  0.96053426  0.19078943    -0.74600
O56         O  0.43441515  0.02395286  0.28008805    -0.74600
O57         O  0.43352718  0.02421610  0.19089518    -0.74500
O58         O  0.40717789  0.96054229  0.28003504    -0.74600
Ni59       Ni  0.46975384  0.99939671  0.23434107     1.25400
Ni60       Ni  0.41859051  0.99204181  0.23543467     1.25400
C61         C  0.42680649  0.95360398  0.29425732     0.87700
C62         C  0.46190333  0.03832423  0.17588463     0.87600
C63         C  0.46285083  0.03765441  0.29487022     0.87600
C64         C  0.42528375  0.95352268  0.17537291     0.87800
O65         O  0.03897566  0.50016143  0.28164871    -0.74500
O66         O  0.97275637  0.46545301  0.19496764    -0.74500
O67         O  0.97495188  0.46925729  0.28375711    -0.74600
O68         O  0.03690858  0.49636797  0.19238774    -0.74600
O69         O  0.03297009  0.45006672  0.19649256    -0.74600
O70         O  0.97171914  0.42329984  0.28806703    -0.74600
O71         O  0.96920484  0.41935885  0.19968017    -0.74500
O72         O  0.03548950  0.45410017  0.28535783    -0.74600
Ni73       Ni  0.00608006  0.48451845  0.23803893     1.25400
Ni74       Ni  0.00226555  0.43512454  0.24253972     1.25400
C75         C  0.04786245  0.48270203  0.29839234     0.87700
C76         C  0.96018194  0.43661175  0.18282538     0.87600
C77         C  0.96304145  0.44172133  0.30094900     0.87600
C78         C  0.04479208  0.47741196  0.17881906     0.87800
C79         C  0.45821754  0.62087342  0.01409250     0.03000
C80         C  0.46792224  0.61602212  0.05534626    -0.13100
C81         C  0.48891345  0.60565286  0.05779104     0.00500
C82         C  0.50011072  0.60023541  0.01888384    -0.11600
C83         C  0.49134769  0.60851658  0.48649060     0.03000
C84         C  0.46977366  0.61793439  0.48621316    -0.11100
H85         H  0.45948725  0.62055696  0.08538848     0.08600
H86         H  0.51552852  0.59129593  0.02036894     0.06200
H87         H  0.45936100  0.61855521  0.45518802     0.06000
C88         C  0.36685848  0.65648790  0.98919597     0.03000
C89         C  0.33441583  0.63243301  0.98803361    -0.13100
C90         C  0.31130508  0.63985045  0.98358410     0.00500
C91         C  0.32095385  0.67180307  0.98049350    -0.11600
C92         C  0.35356149  0.69874653  0.50418098     0.03000
C93         C  0.37599058  0.68831865  0.98616429    -0.11100
H94         H  0.32711645  0.60789177  0.99141219     0.08600
H95         H  0.30315518  0.67766585  0.97768919     0.06200
H96         H  0.40111521  0.70863667  0.50656451     0.06000
C97         C  0.17603482  0.54606298  0.98723810     0.03000
C98         C  0.15889088  0.53541699  0.02683551    -0.13100
C99         C  0.12576033  0.51537410  0.02625239     0.00500
C100        C  0.10973326  0.50504397  0.98600260    -0.11600
C101        C  0.12807166  0.52112026  0.45174868     0.03000
C102        C  0.16104830  0.54191799  0.45511017    -0.11100
H103        H  0.17121499  0.54299975  0.05813920     0.08600
H104        H  0.08402094  0.48998779  0.98544692     0.06200
H105        H  0.17499596  0.55229982  0.42552082     0.06000
C106        C  0.38905527  0.82949513  0.49030621     0.03000
C107        C  0.39259845  0.84510003  0.45001498    -0.13100
C108        C  0.40046439  0.87659129  0.44935298     0.00500
C109        C  0.40595737  0.89268960  0.48928677    -0.11600
C110        C  0.39473615  0.87142410  0.02604270     0.03000
C111        C  0.38648650  0.83994710  0.02368884    -0.11100
H112        H  0.38928739  0.83283021  0.41926213     0.08600
H113        H  0.41337511  0.91738302  0.48930584     0.06200
H114        H  0.38161880  0.82633874  0.05370362     0.06000
C115        C  0.34743049  0.74074259  0.47045887    -0.26400
C116        C  0.36362732  0.73256975  0.49994423    -0.14500
C117        C  0.38526442  0.75271154  0.01086408     0.36200
C118        C  0.39264690  0.78394701  0.00973408    -0.25800
C119        C  0.38060876  0.79619580  0.49172212    -0.15100
C120        C  0.35520572  0.77205158  0.46688608     0.37200
N121        N  0.33632735  0.77890955  0.43945938    -0.89300
H122        H  0.32824262  0.72266655  0.45040201     0.18400
H123        H  0.41039579  0.80113376  0.03231985     0.18300
N124        N  0.39986507  0.74395234  0.04352432    -0.88400
H125        H  0.31284752  0.76521511  0.45045693     0.35700
H126        H  0.33700646  0.77187005  0.40736622     0.40800
H127        H  0.39453596  0.74883535  0.07454299     0.40400
H128        H  0.42444782  0.75821880  0.03924195     0.35300
C129        C  0.25702608  0.61933024  0.01171509    -0.26400
C130        C  0.27691518  0.61463000  0.98501925    -0.14500
C131        C  0.26440463  0.59237577  0.47488308     0.36200
C132        C  0.23143622  0.57011453  0.47328922    -0.25800
C133        C  0.21081018  0.56932147  0.98781239    -0.15100
C134        C  0.22425877  0.59730178  0.01283370     0.37200
N135        N  0.20257635  0.60361104  0.55657546    -0.89300
H136        H  0.26692648  0.64052879  0.03160282     0.18400
H137        H  0.22189290  0.55056035  0.45030952     0.18300
N138        N  0.28318081  0.58123314  0.93162986    -0.88400
H139        H  0.20812845  0.62545499  0.02698122     0.35700
H140        H  0.21212179  0.60711265  0.07102621     0.40800
H141        H  0.29529766  0.60971210  0.42426038     0.40400
H142        H  0.27219141  0.57000966  0.42481177     0.35300
C143        C  0.43969512  0.65546077  0.49124990    -0.26400
C144        C  0.43552552  0.63105006  0.01016199    -0.14500
C145        C  0.40677209  0.61573616  0.03371055     0.36200
C146        C  0.38515036  0.62489534  0.02715016    -0.25800
C147        C  0.39095791  0.64824800  0.99595141    -0.15100
C148        C  0.41672058  0.66293654  0.48592807     0.37200
N149        N  0.41925159  0.68262845  0.44980129    -0.89300
H150        H  0.45965489  0.66588624  0.46880980     0.18400
H151        H  0.36347715  0.61331090  0.04628766     0.18300
N152        N  0.39876114  0.58993035  0.06286520    -0.88400
H153        H  0.41954167  0.67182189  0.42063370     0.35700
H154        H  0.44096218  0.70435324  0.45252487     0.40800
H155        H  0.37759670  0.56990324  0.05176016     0.40400
H156        H  0.39467158  0.59565483  0.09409121     0.35300
C157        C  0.10410129  0.53390972  0.39069311    -0.26400
C158        C  0.11183120  0.51327179  0.40889229    -0.14500
C159        C  0.10036952  0.48365675  0.38907316     0.36200
C160        C  0.08096960  0.47497738  0.35185139    -0.25800
C161        C  0.07181984  0.49492560  0.33439869    -0.15100
C162        C  0.08402600  0.52497301  0.35390937     0.37200
N163        N  0.07531554  0.54609241  0.33772096    -0.89300
H164        H  0.11252220  0.55650633  0.40635643     0.18400
H165        H  0.07207665  0.45187403  0.33759319     0.18300
N166        N  0.10744379  0.46165810  0.40682600    -0.88400
H167        H  0.09607524  0.56751856  0.32924066     0.35700
H168        H  0.06433084  0.55053064  0.36329412     0.40800
H169        H  0.09869709  0.45587869  0.43893042     0.40400
H170        H  0.13213546  0.47283865  0.40802390     0.35300
C171        C  0.08852357  0.47421772  0.07895985    -0.26400
C172        C  0.10740290  0.50629163  0.06743889    -0.14500
C173        C  0.10687156  0.52905381  0.09357183     0.36200
C174        C  0.08680104  0.51928861  0.13029786    -0.25800
C175        C  0.06731179  0.48701789  0.14162408    -0.15100
C176        C  0.06870906  0.46437336  0.11589413     0.37200
N177        N  0.04943116  0.43124913  0.12619992    -0.89300
H178        H  0.08886236  0.45664902  0.05877594     0.18400
H179        H  0.08623466  0.53704934  0.14966376     0.18300
N180        N  0.12589081  0.56197397  0.08199643    -0.88400
H181        H  0.06447867  0.42303893  0.13122058     0.35700
H182        H  0.03503005  0.41940049  0.09904665     0.40800
H183        H  0.14077650  0.57430602  0.10859179     0.40400
H184        H  0.11076389  0.57007904  0.07716701     0.35300
C185        C  0.38182656  0.90150445  0.07629874    -0.26400
C186        C  0.39923214  0.88760255  0.06857126    -0.14500
C187        C  0.42388975  0.89379848  0.09796307     0.36200
C188        C  0.43115506  0.91439120  0.13340642    -0.25800
C189        C  0.41464537  0.92945061  0.14008213    -0.15100
C190        C  0.38941358  0.92248090  0.11139504     0.37200
N191        N  0.37253590  0.93793738  0.11611939    -0.89300
H192        H  0.36316893  0.89724151  0.05357637     0.18400
H193        H  0.45051097  0.91933481  0.15515646     0.18300
N194        N  0.44318749  0.88111698  0.09121805    -0.88400
H195        H  0.34841711  0.92048257  0.11977106     0.35700
H196        H  0.37528975  0.95044662  0.08707741     0.40800
H197        H  0.45316869  0.88760399  0.05980068     0.40400
H198        H  0.42883040  0.85641076  0.09314588     0.35300
C199        C  0.39724601  0.92992044  0.36338442    -0.26400
C200        C  0.41736366  0.93071589  0.33079412    -0.14500
C201        C  0.42957956  0.91123705  0.33520124     0.36200
C202        C  0.42290155  0.89282209  0.37353285    -0.25800
C203        C  0.40413133  0.89339434  0.40725402    -0.15100
C204        C  0.39052126  0.91149553  0.40138073     0.37200
N205        N  0.36987856  0.91132098  0.43402515    -0.89300
H206        H  0.38751388  0.94456164  0.36016087     0.18400
H207        H  0.43319730  0.87876531  0.37770601     0.18300
N208        N  0.44879518  0.91035280  0.30095744    -0.88400
H209        H  0.34805167  0.90368432  0.41911856     0.35700
H210        H  0.37967718  0.93464237  0.44468239     0.40800
H211        H  0.43451114  0.90093576  0.27282417     0.40400
H212        H  0.45588816  0.89490914  0.30936829     0.35300
C213        C  0.50614172  0.08199279  0.33926703    -0.26400
C214        C  0.47346405  0.06116297  0.33110948    -0.14500
C215        C  0.45158244  0.06218036  0.35916061     0.36200
C216        C  0.46264360  0.08308096  0.39500735    -0.25800
C217        C  0.49522161  0.10325126  0.40365748    -0.15100
C218        C  0.51712927  0.10289821  0.37517499     0.37200
N219        N  0.55051978  0.12275536  0.38364922    -0.89300
H220        H  0.52336197  0.08171852  0.31815954     0.18400
H221        H  0.44559255  0.08312456  0.41679031     0.18300
N222        N  0.41806230  0.04133937  0.35246732    -0.88400
H223        H  0.56132171  0.13706644  0.35600646     0.35700
H224        H  0.55938142  0.10820220  0.38756229     0.40800
H225        H  0.40843923  0.05518224  0.34845243     0.40400
H226        H  0.40823305  0.02755146  0.38086687     0.35300
C227        C  0.44942144  0.06641153  0.11940836    -0.26400
C228        C  0.47224411  0.06290482  0.14106951    -0.14500
C229        C  0.50438901  0.08234105  0.12801950     0.36200
C230        C  0.51270932  0.10346961  0.09277740    -0.25800
C231        C  0.48963438  0.10549230  0.06972836    -0.15100
C232        C  0.45775445  0.08730557  0.08385285     0.37200
N233        N  0.43348772  0.08977910  0.06297870    -0.89300
H234        H  0.42473066  0.05220221  0.12924799     0.18400
H235        H  0.53727275  0.11751530  0.08221785     0.18300
N236        N  0.52874464  0.08053373  0.14987773    -0.88400
H237        H  0.43142592  0.08286201  0.03009457     0.35700
H238        H  0.44037106  0.11348302  0.06381230     0.40800
H239        H  0.54557289  0.10301010  0.16210969     0.40400
H240        H  0.53989951  0.07452661  0.12652696     0.35300
C241        C  0.61545004  0.24821446  0.01653547    -0.26400
C242        C  0.61406326  0.27191521  0.47984752    -0.14500
C243        C  0.58730384  0.26031808  0.45205985     0.36200
C244        C  0.56289563  0.22791836  0.45363768    -0.25800
C245        C  0.56481908  0.20688975  0.48216637    -0.15100
C246        C  0.59081788  0.21620293  0.01434922     0.37200
N247        N  0.59483786  0.19262792  0.03413351    -0.89300
H248        H  0.63683306  0.25462335  0.03454524     0.18400
H249        H  0.54223272  0.21903228  0.43265784     0.18300
N250        N  0.58520901  0.28134858  0.42204727    -0.88400
H251        H  0.59953922  0.19782722  0.06763372     0.35700
H252        H  0.61469009  0.19437532  0.01991265     0.40800
H253        H  0.60370328  0.28952058  0.39937675     0.40400
H254        H  0.56404419  0.26910758  0.40403197     0.35300
C255        C  0.62761724  0.38051795  0.05142451    -0.26400
C256        C  0.65043609  0.38592702  0.49975992    -0.14500
C257        C  0.66565787  0.41473643  0.47602559     0.36200
C258        C  0.65753814  0.43692049  0.48405104    -0.25800
C259        C  0.63399831  0.43073209  0.51482182    -0.15100
C260        C  0.61742623  0.40154572  0.05431589     0.37200
N261        N  0.59120695  0.39383986  0.08223732    -0.89300
H262        H  0.61599726  0.35926858  0.07155564     0.18400
H263        H  0.66922033  0.45884486  0.46534765     0.18300
N264        N  0.68851229  0.42110808  0.44263196    -0.88400
H265        H  0.59711246  0.39144587  0.11442298     0.35700
H266        H  0.57165600  0.37189958  0.07237674     0.40800
H267        H  0.68045851  0.42483285  0.41287453     0.40400
H268        H  0.70982329  0.44211641  0.45087063     0.35300
C269        C  0.90221632  0.43600120  0.38145674    -0.26400
C270        C  0.89738856  0.41113557  0.40859613    -0.14500
C271        C  0.91253835  0.39507700  0.39888649     0.36200
C272        C  0.93337359  0.40513182  0.36303667    -0.25800
C273        C  0.93938589  0.43096498  0.33673678    -0.15100
C274        C  0.92311248  0.44612780  0.34571998     0.37200
N275        N  0.92767808  0.47180981  0.31885599    -0.89300
H276        H  0.89045080  0.44828329  0.38888216     0.18400
H277        H  0.94545813  0.39309226  0.35627689     0.18300
N278        N  0.90691754  0.36887028  0.42579636    -0.88400
H279        H  0.93586090  0.49163307  0.33902532     0.35700
H280        H  0.90564938  0.46555075  0.30599713     0.40800
H281        H  0.88294322  0.35079491  0.42241567     0.40400
H282        H  0.92001657  0.35974204  0.41438134     0.35300
C283        C  0.91087630  0.39084523  0.08321186    -0.26400
C284        C  0.89286083  0.40421591  0.07657932    -0.14500
C285        C  0.89490707  0.42631497  0.10720340     0.36200
C286        C  0.91618034  0.43560062  0.14280691    -0.25800
C287        C  0.93547633  0.42337301  0.14811575    -0.15100
C288        C  0.93212095  0.40015553  0.11821488     0.37200
N289        N  0.95111553  0.38680108  0.12079927    -0.89300
H290        H  0.90927460  0.37376344  0.05984785     0.18400
H291        H  0.91834687  0.45311421  0.16580478     0.18300
N292        N  0.87641433  0.44012825  0.10114094    -0.88400
H293        H  0.94602196  0.37402793  0.15022632     0.35700
H294        H  0.97506249  0.40512179  0.12010995     0.40800
H295        H  0.88418451  0.45362318  0.07221882     0.40400
H296        H  0.88059485  0.45579751  0.12673238     0.35300
C297        C  0.77144266  0.34539115  0.01921709    -0.26400
C298        C  0.79525571  0.37867258  0.48342056    -0.14500
C299        C  0.78409959  0.39340619  0.45605354     0.36200
C300        C  0.75168543  0.38215059  0.45568856    -0.25800
C301        C  0.73019802  0.35674180  0.48278553    -0.15100
C302        C  0.73973832  0.33643760  0.02237830     0.37200
N303        N  0.71846537  0.31073153  0.05078283    -0.89300
H304        H  0.77923693  0.33232675  0.03783786     0.18400
H305        H  0.74331463  0.39362893  0.43458788     0.18300
N306        N  0.80567185  0.42043192  0.42979065    -0.88400
H307        H  0.71753066  0.29041664  0.04030561     0.35700
H308        H  0.72792892  0.31606256  0.08260567     0.40800
H309        H  0.80371308  0.43932571  0.43910117     0.40400
H310        H  0.79855031  0.41509451  0.39689034     0.35300
C311        C  0.57163650  0.47117659  0.13324347    -0.26400
C312        C  0.59803293  0.49337909  0.10848790    -0.14500
C313        C  0.61494447  0.52560821  0.12027856     0.36200
C314        C  0.60450605  0.53522355  0.15602974    -0.25800
C315        C  0.57713971  0.51329217  0.17984857    -0.15100
C316        C  0.56088290  0.48081906  0.16855560     0.37200
N317        N  0.53324864  0.45753949  0.19233934    -0.89300
H318        H  0.55851732  0.44638007  0.12396358     0.18400
H319        H  0.61730483  0.56016342  0.16434940     0.18300
N320        N  0.64218970  0.54847073  0.09512147    -0.88400
H321        H  0.53748524  0.44079849  0.20508409     0.35700
H322        H  0.51431981  0.44600332  0.17006493     0.40800
H323        H  0.65951388  0.54312766  0.09882861     0.40400
H324        H  0.65185153  0.57130051  0.10778050     0.35300
C325        C  0.60305994  0.53694932  0.39522900    -0.26400
C326        C  0.57695380  0.51440080  0.36983734    -0.14500
C327        C  0.56204352  0.48175156  0.38051413     0.36200
C328        C  0.57317532  0.47272119  0.41605532    -0.25800
C329        C  0.59830286  0.49539459  0.44211874    -0.15100
C330        C  0.61372025  0.52777244  0.43146951     0.37200
N331        N  0.63983646  0.55112894  0.45789556    -0.89300
H332        H  0.61475365  0.56195099  0.38755544     0.18400
H333        H  0.56128945  0.44779442  0.42446898     0.18300
N334        N  0.53557581  0.45711163  0.35630276    -0.88400
H335        H  0.64846214  0.57395880  0.44583831     0.35700
H336        H  0.65826886  0.54730701  0.45485666     0.40800
H337        H  0.54173408  0.45913974  0.32317254     0.40400
H338        H  0.51617366  0.45946359  0.36003515     0.35300
C339        C  0.52087895  0.62107400  0.41604588    -0.26400
C340        C  0.49876748  0.59837588  0.44555071    -0.14500
C341        C  0.48450026  0.56600310  0.43668908     0.36200
C342        C  0.49305812  0.55658590  0.39888691    -0.25800
C343        C  0.51605667  0.57911656  0.36979334    -0.15100
C344        C  0.52971070  0.61179137  0.37803131     0.37200
N345        N  0.55241163  0.63535337  0.34797464    -0.89300
H346        H  0.53156063  0.64601531  0.42308814     0.18400
H347        H  0.48235600  0.53148407  0.39312373     0.18300
N348        N  0.46149465  0.54266043  0.46641527    -0.88400
H349        H  0.56030129  0.65812871  0.35915269     0.35700
H350        H  0.54065771  0.63249542  0.31811061     0.40800
H351        H  0.46974631  0.52857126  0.47731398     0.40400
H352        H  0.44042475  0.52821433  0.44894023     0.35300
C353        C  0.53891566  0.60149586  0.14790453    -0.26400
C354        C  0.51554222  0.57857296  0.17622275    -0.14500
C355        C  0.48317299  0.56682456  0.16725556     0.36200
C356        C  0.47510184  0.57738229  0.12981380    -0.25800
C357        C  0.49849296  0.59902413  0.10051552    -0.15100
C358        C  0.53076714  0.61178475  0.11020897     0.37200
N359        N  0.55510960  0.63479376  0.08124556    -0.89300
H360        H  0.56374242  0.61081169  0.15440392     0.18400
H361        H  0.45026117  0.56753506  0.12251647     0.18300
N362        N  0.45795974  0.54431762  0.19531662    -0.88400
H363        H  0.57765844  0.64160240  0.09281208     0.35700
H364        H  0.55412501  0.65503672  0.08175466     0.40800
H365        H  0.46258980  0.55325091  0.22738001     0.40400
H366        H  0.45698501  0.52300072  0.19477640     0.35300
O367        O  0.51690100  0.54282125  0.81457541    -0.74500
O368        O  0.54474880  0.50912214  0.72708883    -0.74500
O369        O  0.54362505  0.50864112  0.81617821    -0.74600
O370        O  0.51782851  0.54352558  0.72622272    -0.74600
O371        O  0.56568460  0.58823769  0.72709194    -0.74600
O372        O  0.59147943  0.55320440  0.81749975    -0.74600
O373        O  0.59264887  0.55375693  0.72821706    -0.74500
O374        O  0.56477609  0.58754280  0.81591320    -0.74600
Ni375      Ni  0.52911965  0.52442868  0.77089065     1.25400
Ni376      Ni  0.58041824  0.57225968  0.77212856     1.25400
C377        C  0.53620439  0.57061030  0.82992208     0.87700
C378        C  0.57329634  0.52591327  0.71293821     0.87600
C379        C  0.57157945  0.52532433  0.83249775     0.87600
C380        C  0.53713710  0.57182766  0.71246113     0.90400
C381        C  0.82697966  0.38144022  0.99342043     0.03000
C382        C  0.84407965  0.39384524  0.52636954    -0.13100
C383        C  0.87568826  0.40251483  0.52871549     0.00500
C384        C  0.89127622  0.40206339  0.99510271    -0.11600
C385        C  0.87569417  0.39654682  0.95472575     0.03000
C386        C  0.84352208  0.38626039  0.95389691    -0.11100
H387        H  0.83101727  0.39019947  0.55651851     0.08600
H388        H  0.91641573  0.41100152  0.99561829     0.06200
H389        H  0.83143409  0.38196669  0.92257710     0.06000
C390        C  0.62092566  0.45133221  0.02829227     0.03000
C391        C  0.61557587  0.46178312  0.98809266    -0.13100
C392        C  0.60574643  0.48310989  0.98754159     0.00500
C393        C  0.60081196  0.49377688  0.02719099    -0.11600
C394        C  0.60898490  0.48392201  0.56186656     0.03000
C395        C  0.61969928  0.46334718  0.55957106    -0.11100
H396        H  0.61886676  0.45322130  0.95719841     0.08600
H397        H  0.59247185  0.50970662  0.02673063     0.06200
H398        H  0.62511355  0.45551757  0.58965583     0.06000
C399        C  0.65863843  0.36103010  0.01529203     0.03000
C400        C  0.63349135  0.32923287  0.01080225    -0.13100
C401        C  0.63922358  0.30553713  0.00048795     0.00500
C402        C  0.67070626  0.31391006  0.99562174    -0.11600
C403        C  0.69618898  0.34520948  0.00230066     0.03000
C404        C  0.69000318  0.36867695  0.01208759    -0.11100
H405        H  0.60933209  0.32298448  0.01506422     0.08600
H406        H  0.67543824  0.29601079  0.98650554     0.06200
H407        H  0.70965109  0.39282891  0.01759693     0.06000
C408        C  0.53579286  0.17382388  0.99056644     0.03000
C409        C  0.52588132  0.15717069  0.52322863    -0.13100
C410        C  0.50341833  0.12440814  0.52459081     0.00500
C411        C  0.48876264  0.10895813  0.98832671    -0.11600
C412        C  0.50150167  0.12554549  0.94878951     0.03000
C413        C  0.52471334  0.15818683  0.95002426    -0.11100
H414        H  0.53375297  0.17039512  0.55374204     0.08600
H415        H  0.47206780  0.08348404  0.98761235     0.06200
H416        H  0.53502900  0.17110261  0.91964219     0.06000
O417        O  0.45848461  0.97398643  0.78289103    -0.74500
O418        O  0.48468904  0.03766424  0.69404780    -0.74500
O419        O  0.48377198  0.03720050  0.78315302    -0.74600
O420        O  0.45921593  0.97433139  0.69384328    -0.74600
O421        O  0.41078161  0.96576482  0.69276079    -0.74600
O422        O  0.43531013  0.02863239  0.78186563    -0.74600
O423        O  0.43628578  0.02920370  0.69251678    -0.74500
O424        O  0.41000508  0.96547245  0.78201818    -0.74600
Ni425      Ni  0.47325582  0.00611669  0.73849989     1.25400
Ni426      Ni  0.42136220  0.99695209  0.73720860     1.25400
C427        C  0.42996317  0.95928794  0.79731885     0.87700
C428        C  0.46499209  0.04409424  0.67854588     0.87600
C429        C  0.46349357  0.04306100  0.79769643     0.87600
C430        C  0.43089041  0.95966660  0.67835479     0.87800
O431        O  0.03256305  0.49393048  0.78257259    -0.74500
O432        O  0.96595629  0.46077166  0.69710347    -0.74500
O433        O  0.96861136  0.46282727  0.78619526    -0.74600
O434        O  0.02988234  0.49184905  0.69362634    -0.74600
O435        O  0.02572970  0.44531265  0.69448599    -0.74600
O436        O  0.96557856  0.41690152  0.78804342    -0.74600
O437        O  0.96206949  0.41448194  0.69908041    -0.74500
O438        O  0.02936388  0.44798888  0.78363280    -0.74600
Ni439      Ni  0.99935982  0.47899189  0.73983911     1.25400
Ni440      Ni  0.99557264  0.42954362  0.74137734     1.25400
C441        C  0.04180293  0.47638726  0.79772321     0.87700
C442        C  0.95335493  0.43229410  0.68330734     0.87600
C443        C  0.95715357  0.43514705  0.80266904     0.87600
C444        C  0.03753334  0.47312310  0.67840251     0.87800
C445        C  0.46053877  0.62514245  0.52574218     0.03000
C446        C  0.47373224  0.62312523  0.56576266    -0.13100
C447        C  0.49545584  0.61357036  0.56614323     0.00500
C448        C  0.50397578  0.60621368  0.52628112    -0.11600
C449        C  0.49079240  0.60526178  0.97797201     0.03000
C450        C  0.46991970  0.61548174  0.97561245    -0.11100
H451        H  0.46725429  0.62899147  0.59649427     0.08600
H452        H  0.51969239  0.59761151  0.52623789     0.06200
H453        H  0.46238374  0.61869638  0.94361063     0.06000
C454        C  0.36658270  0.65847727  0.51116696     0.03000
C455        C  0.33405975  0.63468255  0.51121616    -0.13100
C456        C  0.31124117  0.64257502  0.50696143     0.00500
C457        C  0.32117821  0.67458880  0.50410091    -0.11600
C458        C  0.35318374  0.69626856  0.98231213     0.03000
C459        C  0.37606378  0.69035210  0.50731366    -0.11100
H460        H  0.32651727  0.61002652  0.51408727     0.08600
H461        H  0.30350818  0.68064234  0.50154513     0.06200
H462        H  0.40088852  0.70698233  0.98760343     0.06000
C463        C  0.17583561  0.54986826  0.49669775     0.03000
C464        C  0.15713562  0.53637092  0.53463481    -0.13100
C465        C  0.12396911  0.51661975  0.53141911     0.00500
C466        C  0.10971396  0.50881140  0.48978080    -0.11600
C467        C  0.12653975  0.51523355  0.94638825     0.03000
C468        C  0.15964208  0.53572020  0.94695391    -0.11100
H469        H  0.16832932  0.54158542  0.56674496     0.08600
H470        H  0.08408364  0.49381716  0.48684609     0.06200
H471        H  0.17243706  0.54436467  0.91615296     0.06000
C472        C  0.38429550  0.82591184  0.98267745     0.03000
C473        C  0.38993189  0.84373195  0.94393581    -0.13100
C474        C  0.39688730  0.87482352  0.94604723     0.00500
C475        C  0.39958226  0.88850405  0.98716062    -0.11600
C476        C  0.40263984  0.87749791  0.52939962     0.03000
C477        C  0.39397062  0.84594248  0.52991527    -0.11100
H478        H  0.38907062  0.83355543  0.91219003     0.08600
H479        H  0.40637434  0.91298671  0.98899124     0.06200
H480        H  0.39088111  0.83418420  0.56123792     0.06000
C481        C  0.34732212  0.73922179  0.95175993    -0.26400
C482        C  0.36258728  0.72999245  0.98127535    -0.14500
C483        C  0.38850849  0.75670565  0.52565739     0.36200
C484        C  0.39720743  0.78819184  0.52052067    -0.25800
C485        C  0.37696040  0.79297376  0.98080570    -0.15100
C486        C  0.35384363  0.77017167  0.95184558     0.37200
N487        N  0.33593609  0.77790532  0.92377555    -0.89300
H488        H  0.32973701  0.72215569  0.92891668     0.18400
H489        H  0.41666417  0.80643787  0.54008175     0.18300
N490        N  0.40413308  0.74930355  0.55849620    -0.88400
H491        H  0.31190981  0.76270832  0.93153310     0.35700
H492        H  0.33914846  0.77349015  0.89124164     0.40800
H493        H  0.40106497  0.75687540  0.58898807     0.40400
H494        H  0.42841126  0.76224413  0.55144558     0.35300
C495        C  0.25602089  0.62042004  0.53262387    -0.26400
C496        C  0.27684735  0.61765744  0.50521895    -0.14500
C497        C  0.26354788  0.58654750  0.95982297     0.36200
C498        C  0.23062975  0.56408042  0.96181068    -0.25800
C499        C  0.21060835  0.57306471  0.50054831    -0.15100
C500        C  0.22316082  0.59872834  0.53014707     0.37200
N501        N  0.20459780  0.60405455  0.03823764    -0.89300
H502        H  0.26529820  0.63992694  0.55566598     0.18400
H503        H  0.22029331  0.54254358  0.94258336     0.18300
N504        N  0.28513865  0.58992391  0.44500135    -0.88400
H505        H  0.20684625  0.62594082  0.54895396     0.35700
H506        H  0.20856803  0.60375962  0.58961863     0.40800
H507        H  0.29228693  0.59866397  0.90709471     0.40400
H508        H  0.26965406  0.55938281  0.91568746     0.35300
C509        C  0.44160290  0.65473944  0.97947526    -0.26400
C510        C  0.43687556  0.63435040  0.52421895    -0.14500
C511        C  0.41046436  0.62088665  0.55275254     0.36200
C512        C  0.38792995  0.62918196  0.54828519    -0.25800
C513        C  0.39077828  0.65015344  0.51507212    -0.15100
C514        C  0.41937958  0.66291896  0.97146634     0.37200
N515        N  0.42526225  0.68515362  0.93717327    -0.89300
H516        H  0.46345559  0.66647955  0.96070012     0.18400
H517        H  0.36799057  0.61900249  0.57074595     0.18300
N518        N  0.40573748  0.59792145  0.58519493    -0.88400
H519        H  0.42820306  0.67641167  0.90766810     0.35700
H520        H  0.44659267  0.70646154  0.94428477     0.40800
H521        H  0.38381822  0.57696764  0.57904096     0.40400
H522        H  0.40457313  0.60634836  0.61603321     0.35300
C523        C  0.10140644  0.52791008  0.88710882    -0.26400
C524        C  0.10869896  0.50682633  0.90478865    -0.14500
C525        C  0.09587352  0.47682669  0.88556385     0.36200
C526        C  0.07529624  0.46808437  0.84965347    -0.25800
C527        C  0.06639404  0.48842341  0.83293828    -0.15100
C528        C  0.08006338  0.51901231  0.85176549     0.37200
N529        N  0.07169402  0.54065729  0.83618454    -0.89300
H530        H  0.11119363  0.55084890  0.90248637     0.18400
H531        H  0.06542695  0.44470334  0.83575760     0.18300
N532        N  0.10294591  0.45462521  0.90245103    -0.88400
H533        H  0.08553668  0.56267215  0.85162176     0.35700
H534        H  0.04830139  0.53163487  0.84593958     0.40800
H535        H  0.09549893  0.44960599  0.93527073     0.40400
H536        H  0.12752522  0.46529313  0.90170305     0.35300
C537        C  0.07869284  0.47335632  0.57394924    -0.26400
C538        C  0.10362995  0.50533876  0.57111778    -0.14500
C539        C  0.10682383  0.52663254  0.60401097     0.36200
C540        C  0.08519036  0.51564504  0.63898416    -0.25800
C541        C  0.06021205  0.48371239  0.64163453    -0.15100
C542        C  0.05684695  0.46246932  0.60859480     0.37200
N543        N  0.03046192  0.43017204  0.60898123    -0.89300
H544        H  0.07571559  0.45685130  0.54854981     0.18400
H545        H  0.08782635  0.53223688  0.66400915     0.18300
N546        N  0.13118447  0.55965701  0.60110291    -0.88400
H547        H  0.03934840  0.41551139  0.60908948     0.35700
H548        H  0.01759342  0.42600699  0.57989270     0.40800
H549        H  0.14502577  0.56598933  0.62967143     0.40400
H550        H  0.12033979  0.57250923  0.60024096     0.35300
C551        C  0.38668935  0.90314947  0.58304829    -0.26400
C552        C  0.40831274  0.89514410  0.57061553    -0.14500
C553        C  0.43638198  0.90665764  0.59520930     0.36200
C554        C  0.44278192  0.92680129  0.63091855    -0.25800
C555        C  0.42169267  0.93591743  0.64275070    -0.15100
C556        C  0.39297058  0.92323943  0.61887860     0.37200
N557        N  0.37043151  0.93129717  0.62986910    -0.89300
H558        H  0.36511563  0.89436042  0.56408602     0.18400
H559        H  0.46480191  0.93591844  0.64884450     0.18300
N560        N  0.45931597  0.89925417  0.58354011    -0.88400
H561        H  0.34875848  0.91032855  0.63675193     0.35700
H562        H  0.36727905  0.94187464  0.60227868     0.40800
H563        H  0.46653016  0.90664435  0.55111558     0.40400
H564        H  0.44842645  0.87466475  0.58506369     0.35300
C565        C  0.39594746  0.93037187  0.86185916    -0.26400
C566        C  0.42013944  0.93551811  0.83302754    -0.14500
C567        C  0.43519692  0.91876521  0.83984369     0.36200
C568        C  0.42648177  0.89820942  0.87617920    -0.25800
C569        C  0.40309495  0.89403318  0.90572765    -0.15100
C570        C  0.38740511  0.90992335  0.89804789     0.37200
N571        N  0.36275225  0.90533896  0.92701151    -0.89300
H572        H  0.38410569  0.94292534  0.85704030     0.18400
H573        H  0.43856404  0.88601414  0.88214862     0.18300
N574        N  0.45926569  0.92266022  0.81001506    -0.88400
H575        H  0.34208521  0.89687509  0.90841264     0.35700
H576        H  0.36937728  0.92740758  0.93985510     0.40800
H577        H  0.44842707  0.91380431  0.77941072     0.40400
H578        H  0.46815825  0.90898642  0.82008414     0.35300
C579        C  0.50519490  0.08720740  0.84372081    -0.26400
C580        C  0.47280031  0.06633956  0.83387942    -0.14500
C581        C  0.45003440  0.06701889  0.86037254     0.36200
C582        C  0.45998133  0.08755536  0.89654898    -0.25800
C583        C  0.49227482  0.10762403  0.90697050    -0.15100
C584        C  0.51505311  0.10767122  0.87995104     0.37200
N585        N  0.54816447  0.12737887  0.89037468    -0.89300
H586        H  0.52308259  0.08719647  0.82383286     0.18400
H587        H  0.44229147  0.08723610  0.91735537     0.18300
N588        N  0.41674820  0.04617513  0.85183058    -0.88400
H589        H  0.55981171  0.14199464  0.86337414     0.35700
H590        H  0.55688554  0.11271677  0.89509120     0.40800
H591        H  0.40719600  0.06000764  0.84692476     0.40400
H592        H  0.40611078  0.03212611  0.87980743     0.35300
C593        C  0.45232437  0.06869457  0.61682389    -0.26400
C594        C  0.47532523  0.06825703  0.64297729    -0.14500
C595        C  0.50785761  0.08993062  0.63323061     0.36200
C596        C  0.51637436  0.10881096  0.59512542    -0.25800
C597        C  0.49323788  0.10731710  0.56726744    -0.15100
C598        C  0.46095482  0.08813000  0.57947088     0.37200
N599        N  0.43655339  0.08838533  0.55509599    -0.89300
H600        H  0.42734549  0.05318295  0.62462825     0.18400
H601        H  0.54121869  0.12419877  0.58643913     0.18300
N602        N  0.53216267  0.09263587  0.66178457    -0.88400
H603        H  0.43572409  0.08041823  0.52316591     0.35700
H604        H  0.44234036  0.11176470  0.55344718     0.40800
H605        H  0.53012514  0.10128069  0.69200259     0.40400
H606        H  0.55473006  0.10943588  0.64964204     0.35300
C607        C  0.61607219  0.25076091  0.50785137    -0.26400
C608        C  0.61256501  0.27181390  0.99641469    -0.14500
C609        C  0.58436698  0.26273737  0.97315554     0.36200
C610        C  0.55960971  0.23064402  0.97131096    -0.25800
C611        C  0.56247666  0.20734722  0.99213284    -0.15100
C612        C  0.59191495  0.21852634  0.50908549     0.37200
N613        N  0.59537519  0.19752405  0.53706579    -0.89300
H614        H  0.63649024  0.25935752  0.52926847     0.18400
H615        H  0.53795383  0.22390879  0.95378864     0.18300
N616        N  0.58093626  0.28584687  0.95062203    -0.88400
H617        H  0.59800766  0.20558029  0.56947206     0.35700
H618        H  0.61619045  0.19887783  0.52818159     0.40800
H619        H  0.57669151  0.27967676  0.91733955     0.40400
H620        H  0.56096801  0.28468492  0.96330128     0.35300
C621        C  0.62767488  0.38021808  0.53156327    -0.26400
C622        C  0.65161571  0.38600029  0.02186551    -0.14500
C623        C  0.66645235  0.41391043  0.99610116     0.36200
C624        C  0.65684091  0.43534209  0.99989172    -0.25800
C625        C  0.63205174  0.42925304  0.02821871    -0.15100
C626        C  0.61917716  0.40218608  0.53904467     0.37200
N627        N  0.59459874  0.39478557  0.57000474    -0.89300
H628        H  0.61610689  0.35837620  0.55043416     0.18400
H629        H  0.66839376  0.45657966  0.97972295     0.18300
N630        N  0.69025038  0.41993916  0.96449461    -0.88400
H631        H  0.60153415  0.39102119  0.60072404     0.35700
H632        H  0.57403540  0.37360573  0.56027939     0.40800
H633        H  0.68240478  0.42190116  0.93342459     0.40400
H634        H  0.71089696  0.44172654  0.97207330     0.35300
C635        C  0.89669042  0.42750510  0.88566943    -0.26400
C636        C  0.89406499  0.40396192  0.91368419    -0.14500
C637        C  0.91114470  0.38984388  0.90420759     0.36200
C638        C  0.93095959  0.39982644  0.86726839    -0.25800
C639        C  0.93447425  0.42415510  0.83978383    -0.15100
C640        C  0.91685374  0.43787112  0.84903193     0.37200
N641        N  0.91925666  0.46228780  0.82142665    -0.89300
H642        H  0.88377543  0.43862522  0.89306262     0.18400
H643        H  0.94424692  0.38897378  0.86080309     0.18300
N644        N  0.90846235  0.36542813  0.93214838    -0.88400
H645        H  0.92688979  0.48235985  0.84086972     0.35700
H646        H  0.89660846  0.45455271  0.80950413     0.40800
H647        H  0.90051388  0.34519652  0.91299531     0.40400
H648        H  0.93111595  0.37295693  0.94394969     0.35300
C649        C  0.90462702  0.38935912  0.58145456    -0.26400
C650        C  0.89160218  0.40727475  0.57151294    -0.14500
C651        C  0.89587263  0.43092653  0.60083735     0.36200
C652        C  0.91475287  0.43740266  0.63849255    -0.25800
C653        C  0.92946468  0.42073020  0.64738207    -0.15100
C654        C  0.92316381  0.39551038  0.61907169     0.37200
N655        N  0.93597630  0.37636796  0.62644532    -0.89300
H656        H  0.90094805  0.37085860  0.55912210     0.18400
H657        H  0.91882948  0.45632437  0.66022074     0.18300
N658        N  0.88199758  0.44900347  0.59145041    -0.88400
H659        H  0.92785062  0.36484916  0.65681477     0.35700
H660        H  0.96072884  0.39089456  0.62666958     0.40800
H661        H  0.89260512  0.46215690  0.56282471     0.40400
H662        H  0.88723074  0.46535577  0.61652606     0.35300
C663        C  0.77367297  0.35315057  0.51027135    -0.26400
C664        C  0.79317724  0.37123526  0.99302747    -0.14500
C665        C  0.78271127  0.38798727  0.96891351     0.36200
C666        C  0.75095392  0.37899558  0.97199444    -0.25800
C667        C  0.72933195  0.35345376  0.99877466    -0.15100
C668        C  0.74142473  0.34236032  0.51056845     0.37200
N669        N  0.72039115  0.31761000  0.54035958    -0.89300
H670        H  0.78191716  0.34163103  0.53150965     0.18400
H671        H  0.74319345  0.39216049  0.95356144     0.18300
N672        N  0.80447478  0.41477906  0.94244324    -0.88400
H673        H  0.72121020  0.29765972  0.53358653     0.35700
H674        H  0.72888925  0.32504189  0.57235764     0.40800
H675        H  0.80470703  0.43450599  0.95387692     0.40400
H676        H  0.79590242  0.41035442  0.91010098     0.35300
C677        C  0.57598462  0.47198841  0.62784231    -0.26400
C678        C  0.60329818  0.49383945  0.60432637    -0.14500
C679        C  0.62196575  0.52570165  0.61842130     0.36200
C680        C  0.61217404  0.53509847  0.65490701    -0.25800
C681        C  0.58398220  0.51366776  0.67744396    -0.15100
C682        C  0.56599255  0.48160447  0.66401456     0.37200
N683        N  0.53724972  0.45882418  0.68621205    -0.89300
H684        H  0.56148439  0.44761993  0.61674919     0.18400
H685        H  0.62632835  0.55978040  0.66463216     0.18300
N686        N  0.65036844  0.54933910  0.59589353    -0.88400
H687        H  0.53954997  0.44048799  0.69755563     0.35700
H688        H  0.51868448  0.44931149  0.66325964     0.40800
H689        H  0.65595632  0.53970846  0.56989519     0.40400
H690        H  0.66920331  0.55796190  0.61821838     0.35300
C691        C  0.60803615  0.53473328  0.89478728    -0.26400
C692        C  0.58089887  0.51303812  0.87026147    -0.14500
C693        C  0.56305137  0.48070395  0.88375394     0.36200
C694        C  0.57253567  0.47125169  0.92087109    -0.25800
C695        C  0.59893224  0.49326834  0.94572697    -0.15100
C696        C  0.61694340  0.52515098  0.93243612     0.37200
N697        N  0.64424604  0.54786979  0.95732058    -0.89300
H698        H  0.62208831  0.55954585  0.88550977     0.18400
H699        H  0.55847304  0.44667881  0.93137338     0.18300
N700        N  0.53515288  0.45684101  0.86100029    -0.88400
H701        H  0.64079611  0.56562914  0.96763994     0.35700
H702        H  0.66391671  0.55822199  0.93638686     0.40800
H703        H  0.54082328  0.45656869  0.82807357     0.40400
H704        H  0.51766424  0.46212375  0.86324051     0.35300
C705        C  0.53464309  0.61515879  0.92930047    -0.26400
C706        C  0.50199613  0.59844358  0.93764541    -0.14500
C707        C  0.48050216  0.57441457  0.90873973     0.36200
C708        C  0.49229149  0.56681277  0.87255775    -0.25800
C709        C  0.52511750  0.58251934  0.86504975    -0.15100
C710        C  0.54643016  0.60757377  0.89311208     0.37200
N711        N  0.58001614  0.62475707  0.88595988    -0.89300
H712        H  0.55108709  0.63384374  0.95146917     0.18400
H713        H  0.47571184  0.54788776  0.85082754     0.18300
N714        N  0.44692087  0.55720693  0.91707200    -0.88400
H715        H  0.59069357  0.62235695  0.91406103     0.35700
H716        H  0.58825195  0.64873657  0.88226362     0.40800
H717        H  0.44266389  0.54462375  0.94638542     0.40400
H718        H  0.43434928  0.54035238  0.89238195     0.35300
C719        C  0.54895661  0.60798359  0.64895156    -0.26400
C720        C  0.52652362  0.58553381  0.67863480    -0.14500
C721        C  0.49444038  0.57651462  0.67487652     0.36200
C722        C  0.48519741  0.58778780  0.63962705    -0.25800
C723        C  0.50719761  0.60803693  0.60788331    -0.15100
C724        C  0.53964869  0.61948824  0.61379015     0.37200
N725        N  0.56287834  0.64229679  0.58350166    -0.89300
H726        H  0.57370521  0.61582101  0.65228655     0.18400
H727        H  0.46031270  0.57934804  0.63581769     0.18300
N728        N  0.47071113  0.55624312  0.70636975    -0.88400
H729        H  0.58563873  0.64826787  0.59237044     0.35700
H730        H  0.56278174  0.66302059  0.58620750     0.40800
H731        H  0.47873219  0.56570869  0.73781272     0.40400
H732        H  0.46695072  0.53367079  0.70489284     0.35300
loop_ 
_geom_bond_atom_site_label_1 
_geom_bond_atom_site_label_2 
_geom_bond_distance 
_geom_bond_site_symmetry_2 
_ccdc_geom_bond_type 
O1           Ni9   1.914       .  S
O1           C11   1.281       .  A
O2           Ni9   1.916       .  S
O2           C12   1.281       .  A
O3           Ni9   1.909       .  S
O3           C13   1.279       .  A
O4           Ni9   1.914       .  S
O4           C14   1.279       .  A
O5          Ni10   1.914       .  S
O5           C14   1.282       .  A
O6          Ni10   1.914       .  S
O6           C13   1.282       .  A
O7          Ni10   1.914       .  S
O7           C12   1.281       .  A
O8          Ni10   1.913       .  S
O8           C11   1.280       .  A
Ni9         Ni10   2.384       .  S
C11         C343   1.480       .  S
C12         C315   1.486       .  S
C13         C326   1.483       .  S
C14         C354   1.483       .  S
C15         C298   1.480       .  S
C15          C20   1.405       .  A
C15         C382   1.405       .  A
C16          C17   1.401       .  A
C16         C381   1.406   1_554  A
C16          H21   1.084       .  S
C17         C284   1.478       .  S
C17         C384   1.400   1_554  A
C18          C19   1.399       .  A
C18         C383   1.398       .  A
C18          H22   1.085       .  S
C19         C270   1.472       .  S
C19          C20   1.400       .  A
C20          H23   1.083       .  S
C24         C259   1.481       .  S
C24          C25   1.405       .  A
C24         C395   1.407       .  A
C25          C26   1.398       .  A
C25          H30   1.084       .  S
C26         C329   1.470       .  S
C26          C27   1.395       .  A
C27         C394   1.397       .  A
C27          H31   1.085       .  S
C28         C312   1.474       .  S
C28          C29   1.402       .  A
C28         C393   1.398       .  A
C29         C390   1.408       .  A
C29          H32   1.083       .  S
C33         C256   1.481       .  S
C33          C34   1.406       .  A
C33          C38   1.400       .  A
C34          C35   1.404       .  A
C34          H39   1.083       .  S
C35         C242   1.486       .  S
C35          C36   1.405       .  A
C36          C37   1.404       .  A
C36          H40   1.084       .  S
C37         C301   1.478       .  S
C37          C38   1.399       .  A
C38          H41   1.084       .  S
C42         C245   1.487       .  S
C42          C47   1.407       .  A
C42         C409   1.407       .  A
C43          C44   1.400       .  A
C43         C408   1.403   1_554  A
C43          H48   1.084       .  S
C44         C231   1.475       .  S
C44         C411   1.399   1_554  A
C45          C46   1.403       .  A
C45         C410   1.402       .  A
C45          H49   1.084       .  S
C46         C217   1.484       .  S
C46          C47   1.405       .  A
C47          H50   1.084       .  S
O51         Ni59   1.911       .  S
O51          C61   1.280       .  A
O52         Ni59   1.911   1_545  S
O52          C62   1.280       .  A
O53         Ni59   1.920   1_545  S
O53          C63   1.283       .  A
O54         Ni59   1.917       .  S
O54          C64   1.282       .  A
O55         Ni60   1.916       .  S
O55          C64   1.281       .  A
O56         Ni60   1.915   1_545  S
O56          C63   1.281       .  A
O57         Ni60   1.917   1_545  S
O57          C62   1.282       .  A
O58         Ni60   1.915       .  S
O58          C61   1.282       .  A
Ni59        Ni60   2.385       .  S
C61         C200   1.476       .  S
C62         C228   1.486       .  S
C63         C214   1.488       .  S
C64         C189   1.484       .  S
O65         Ni73   1.918       .  S
O65          C75   1.281       .  A
O66         Ni73   1.918   1_655  S
O66          C76   1.282       .  A
O67         Ni73   1.914   1_655  S
O67          C77   1.281       .  A
O68         Ni73   1.918       .  S
O68          C78   1.282       .  A
O69         Ni74   1.909       .  S
O69          C78   1.280       .  A
O70         Ni74   1.906   1_655  S
O70          C77   1.280       .  A
O71         Ni74   1.907   1_655  S
O71          C76   1.279       .  A
O72         Ni74   1.909       .  S
O72          C75   1.281       .  A
Ni73        Ni74   2.384       .  S
C75         C161   1.487       .  S
C76         C287   1.480       .  S
C77         C273   1.480       .  S
C78         C175   1.483       .  S
C79         C144   1.482       .  S
C79          C80   1.410       .  A
C79         C450   1.402   1_554  A
C80          C81   1.406       .  A
C80          H85   1.083       .  S
C81         C357   1.480       .  S
C81          C82   1.400       .  A
C82         C449   1.395   1_554  A
C82          H86   1.084       .  S
C83         C340   1.470       .  S
C83          C84   1.395       .  A
C83         C448   1.395       .  A
C84         C445   1.406       .  A
C84          H87   1.084       .  S
C88         C147   1.487       .  S
C88          C89   1.405       .  A
C88          C93   1.406       .  A
C89          C90   1.402       .  A
C89          H94   1.083       .  S
C90         C130   1.487       .  S
C90          C91   1.405       .  A
C91         C458   1.404       .  A
C91          H95   1.083       .  S
C92         C116   1.491       .  S
C92         C457   1.404       .  A
C92         C459   1.405       .  A
C93         C458   1.405       .  A
C93         H462   1.081       .  S
H96         C459   1.082       .  S
C97         C133   1.482       .  S
C97          C98   1.406   1_556  A
C97         C468   1.406       .  A
C98          C99   1.400       .  A
C98         H103   1.084       .  S
C99         C172   1.473       .  S
C99         C100   1.398   1_554  A
C100        C467   1.398       .  A
C100        H104   1.085       .  S
C101        C158   1.470       .  S
C101        C102   1.400       .  A
C101        C466   1.396       .  A
C102        C463   1.407       .  A
C102        H105   1.084       .  S
C106        C119   1.486       .  S
C106        C107   1.409       .  A
C106        C477   1.406       .  A
C107        C108   1.407       .  A
C107        H112   1.083       .  S
C108        C203   1.485       .  S
C108        C109   1.402       .  A
C109        C476   1.396       .  A
C109        H113   1.084       .  S
C110        C186   1.479       .  S
C110        C111   1.402       .  A
C110        C475   1.399   1_554  A
C111        C472   1.408   1_554  A
C111        H114   1.083       .  S
C115        C116   1.408       .  A
C115        C120   1.403       .  A
C115        H122   1.083       .  S
C116        C483   1.413       .  A
C117        C118   1.402       .  A
C117        C482   1.413   1_554  A
C117        N124   1.432       .  S
C118        C485   1.404   1_554  A
C118        H123   1.084       .  S
C119        C120   1.409       .  A
C119        C484   1.404       .  A
C120        N121   1.432       .  S
N121        H125   1.046       .  S
N121        H126   1.046       .  S
N124        H127   1.046       .  S
N124        H128   1.045       .  S
C129        C130   1.404   1_554  A
C129        C134   1.397       .  A
C129        H136   1.084       .  S
C130        C497   1.415       .  A
C131        C132   1.407       .  A
C131        C496   1.413       .  A
C131        N504   1.438       .  S
C132        C499   1.405       .  A
C132        H137   1.084       .  S
C133        C134   1.408   1_556  A
C133        C498   1.404       .  A
C134        N501   1.433       .  S
N135        C500   1.433       .  S
N135        H505   1.046       .  S
N135        H506   1.045       .  S
N138        C497   1.438       .  S
N138        H507   1.046       .  S
N138        H508   1.046       .  S
H139        N501   1.045       .  S
H140        N501   1.046       .  S
H141        N504   1.045       .  S
H142        N504   1.047       .  S
C143        C148   1.400       .  A
C143        C510   1.405       .  A
C143        H150   1.084       .  S
C144        C145   1.408       .  A
C144        C509   1.405   1_554  A
C145        C146   1.401       .  A
C145        N152   1.432       .  S
C146        C147   1.407   1_554  A
C146        H151   1.083       .  S
C147        C514   1.411       .  A
C148        C513   1.409       .  A
C148        N149   1.433       .  S
N149        H153   1.045       .  S
N149        H154   1.046       .  S
N152        H155   1.046       .  S
N152        H156   1.045       .  S
C157        C158   1.399       .  A
C157        C162   1.403       .  A
C157        H164   1.084       .  S
C158        C159   1.408       .  A
C159        C160   1.396       .  A
C159        N166   1.433       .  S
C160        C161   1.409       .  A
C160        H165   1.083       .  S
C161        C162   1.416       .  A
C162        N163   1.432       .  S
N163        H167   1.045       .  S
N163        H168   1.046       .  S
N166        H169   1.044       .  S
N166        H170   1.046       .  S
C171        C172   1.398       .  A
C171        C176   1.401       .  A
C171        H178   1.084       .  S
C172        C173   1.406       .  A
C173        C174   1.402       .  A
C173        N180   1.433       .  S
C174        C175   1.407       .  A
C174        H179   1.084       .  S
C175        C176   1.415       .  A
C176        N177   1.432       .  S
N177        H181   1.048       .  S
N177        H182   1.044       .  S
N180        H183   1.045       .  S
N180        H184   1.046       .  S
C185        C186   1.402       .  A
C185        C190   1.401       .  A
C185        H192   1.084       .  S
C186        C187   1.413       .  A
C187        C188   1.400       .  A
C187        N194   1.433       .  S
C188        C189   1.407       .  A
C188        H193   1.084       .  S
C189        C190   1.412       .  A
C190        N191   1.432       .  S
N191        H195   1.046       .  S
N191        H196   1.046       .  S
N194        H197   1.045       .  S
N194        H198   1.045       .  S
C199        C200   1.401       .  A
C199        C204   1.399       .  A
C199        H206   1.084       .  S
C200        C201   1.413       .  A
C201        C202   1.407       .  A
C201        N208   1.438       .  S
C202        C203   1.405       .  A
C202        H207   1.083       .  S
C203        C204   1.411       .  A
C204        N205   1.433       .  S
N205        H209   1.045       .  S
N205        H210   1.047       .  S
N208        H211   1.048       .  S
N208        H212   1.043       .  S
C213        C214   1.407       .  A
C213        C218   1.405       .  A
C213        H220   1.084       .  S
C214        C215   1.415       .  A
C215        C216   1.403       .  A
C215        N222   1.432       .  S
C216        C217   1.402       .  A
C216        H221   1.084       .  S
C217        C218   1.409       .  A
C218        N219   1.432       .  S
N219        H223   1.044       .  S
N219        H224   1.047       .  S
N222        H225   1.045       .  S
N222        H226   1.046       .  S
C227        C228   1.408       .  A
C227        C232   1.400       .  A
C227        H234   1.083       .  S
C228        C229   1.415       .  A
C229        C230   1.399       .  A
C229        N236   1.432       .  S
C230        C231   1.399       .  A
C230        H235   1.084       .  S
C231        C232   1.411       .  A
C232        N233   1.433       .  S
N233        H237   1.045       .  S
N233        H238   1.044       .  S
N236        H239   1.045       .  S
N236        H240   1.046       .  S
C241        C246   1.400       .  A
C241        C608   1.406   1_554  A
C241        H248   1.084       .  S
C242        C243   1.414       .  A
C242        C607   1.403       .  A
C243        C244   1.409       .  A
C243        N250   1.438       .  S
C244        C245   1.405       .  A
C244        H249   1.084       .  S
C245        C612   1.410       .  A
C246        C611   1.408   1_554  A
C246        N247   1.433       .  S
N247        H251   1.046       .  S
N247        H252   1.046       .  S
N250        H253   1.045       .  S
N250        H254   1.046       .  S
C255        C260   1.403       .  A
C255        C622   1.406       .  A
C255        H262   1.084       .  S
C256        C257   1.411       .  A
C256        C621   1.403       .  A
C257        C258   1.400       .  A
C257        N264   1.433       .  S
C258        C259   1.404       .  A
C258        H263   1.084       .  S
C259        C626   1.410       .  A
C260        C625   1.410       .  A
C260        N261   1.432       .  S
N261        H265   1.045       .  S
N261        H266   1.046       .  S
N264        H267   1.045       .  S
N264        H268   1.046       .  S
C269        C270   1.400       .  A
C269        C274   1.400       .  A
C269        H276   1.084       .  S
C270        C271   1.408       .  A
C271        C272   1.402       .  A
C271        N278   1.438       .  S
C272        C273   1.407       .  A
C272        H277   1.083       .  S
C273        C274   1.413       .  A
C274        N275   1.432       .  S
N275        H279   1.046       .  S
N275        H280   1.045       .  S
N278        H281   1.047       .  S
N278        H282   1.044       .  S
C283        C284   1.400       .  A
C283        C288   1.392       .  A
C283        H290   1.084       .  S
C284        C285   1.411       .  A
C285        C286   1.407       .  A
C285        N292   1.438       .  S
C286        C287   1.407       .  A
C286        H291   1.084       .  S
C287        C288   1.417       .  A
C288        N289   1.433       .  S
N289        H293   1.046       .  S
N289        H294   1.044       .  S
N292        H295   1.046       .  S
N292        H296   1.045       .  S
C297        C302   1.401       .  A
C297        C664   1.403   1_554  A
C297        H304   1.084       .  S
C298        C299   1.410       .  A
C298        C663   1.404       .  A
C299        C300   1.401       .  A
C299        N306   1.433       .  S
C300        C301   1.404       .  A
C300        H305   1.084       .  S
C301        C668   1.407       .  A
C302        C667   1.411   1_554  A
C302        N303   1.433       .  S
N303        H307   1.046       .  S
N303        H308   1.045       .  S
N306        H309   1.045       .  S
N306        H310   1.046       .  S
C311        C312   1.400       .  A
C311        C316   1.403       .  A
C311        H318   1.084       .  S
C312        C313   1.407       .  A
C313        C314   1.404       .  A
C313        N320   1.438       .  S
C314        C315   1.407       .  A
C314        H319   1.083       .  S
C315        C316   1.415       .  A
C316        N317   1.432       .  S
N317        H321   1.044       .  S
N317        H322   1.047       .  S
N320        H323   1.044       .  S
N320        H324   1.047       .  S
C325        C326   1.408       .  A
C325        C330   1.402       .  A
C325        H332   1.083       .  S
C326        C327   1.421       .  A
C327        C328   1.395       .  A
C327        N334   1.432       .  S
C328        C329   1.398       .  A
C328        H333   1.084       .  S
C329        C330   1.407       .  A
C330        N331   1.438       .  S
N331        H335   1.046       .  S
N331        H336   1.045       .  S
N334        H337   1.042       .  S
N334        H338   1.048       .  S
C339        C340   1.400       .  A
C339        C344   1.407       .  A
C339        H346   1.084       .  S
C340        C341   1.402       .  A
C341        C342   1.398       .  A
C341        N348   1.432       .  S
C342        C343   1.405       .  A
C342        H347   1.084       .  S
C343        C344   1.416       .  A
C344        N345   1.438       .  S
N345        H349   1.044       .  S
N345        H350   1.047       .  S
N348        H351   1.046       .  S
N348        H352   1.045       .  S
C353        C354   1.405       .  A
C353        C358   1.401       .  A
C353        H360   1.084       .  S
C354        C355   1.419       .  A
C355        C356   1.400       .  A
C355        N362   1.433       .  S
C356        C357   1.402       .  A
C356        H361   1.084       .  S
C357        C358   1.410       .  A
C358        N359   1.438       .  S
N359        H363   1.047       .  S
N359        H364   1.044       .  S
N362        H365   1.046       .  S
N362        H366   1.044       .  S
O367       Ni375   1.903       .  S
O367        C377   1.280       .  A
O368       Ni375   1.909       .  S
O368        C378   1.279       .  A
O369       Ni375   1.912       .  S
O369        C379   1.279       .  A
O370       Ni375   1.910       .  S
O370        C380   1.279       .  A
O371       Ni376   1.919       .  S
O371        C380   1.282       .  A
O372       Ni376   1.918       .  S
O372        C379   1.283       .  A
O373       Ni376   1.912       .  S
O373        C378   1.281       .  A
O374       Ni376   1.909       .  S
O374        C377   1.279       .  A
Ni375      Ni376   2.384       .  S
C377        C709   1.475       .  S
C378        C681   1.482       .  S
C379        C692   1.489       .  S
C380        C720   1.482       .  S
C381        C664   1.481       .  S
C381        C386   1.406       .  A
C382        C383   1.399       .  A
C382        H387   1.084       .  S
C383        C650   1.473       .  S
C384        C385   1.397       .  A
C384        H388   1.085       .  S
C385        C636   1.475       .  S
C385        C386   1.402       .  A
C386        H389   1.084       .  S
C390        C625   1.486       .  S
C390        C391   1.408   1_554  A
C391        C392   1.400       .  A
C391        H396   1.084       .  S
C392        C695   1.473       .  S
C392        C393   1.397   1_556  A
C393        H397   1.085       .  S
C394        C678   1.468       .  S
C394        C395   1.401       .  A
C395        H398   1.083       .  S
C399        C622   1.489       .  S
C399        C400   1.405       .  A
C399        C404   1.405       .  A
C400        C401   1.404       .  A
C400        H405   1.082       .  S
C401        C608   1.488   1_554  S
C401        C402   1.404   1_554  A
C402        C403   1.402   1_556  A
C402        H406   1.084       .  S
C403        C667   1.483   1_554  S
C403        C404   1.404       .  A
C404        H407   1.083       .  S
C408        C611   1.477       .  S
C408        C413   1.404       .  A
C409        C410   1.402       .  A
C409        H414   1.084       .  S
C410        C597   1.482       .  S
C411        C412   1.402       .  A
C411        H415   1.084       .  S
C412        C583   1.480       .  S
C412        C413   1.405       .  A
C413        H416   1.084       .  S
O417       Ni425   1.913   1_565  S
O417        C427   1.280       .  A
O418       Ni425   1.914       .  S
O418        C428   1.281       .  A
O419       Ni425   1.917       .  S
O419        C429   1.282       .  A
O420       Ni425   1.917   1_565  S
O420        C430   1.282       .  A
O421       Ni426   1.915       .  S
O421        C430   1.281       .  A
O422       Ni426   1.914   1_545  S
O422        C429   1.280       .  A
O423       Ni426   1.923   1_545  S
O423        C428   1.283       .  A
O424       Ni426   1.920       .  S
O424        C427   1.282       .  A
Ni425      Ni426   2.383   1_545  S
C427        C566   1.483       .  S
C428        C594   1.489       .  S
C429        C580   1.486       .  S
C430        C555   1.488       .  S
O431       Ni439   1.912   1_455  S
O431        C441   1.280       .  A
O432       Ni439   1.912       .  S
O432        C442   1.282       .  A
O433       Ni439   1.915       .  S
O433        C443   1.281       .  A
O434       Ni439   1.915   1_455  S
O434        C444   1.281       .  A
O435       Ni440   1.911   1_455  S
O435        C444   1.280       .  A
O436       Ni440   1.910       .  S
O436        C443   1.280       .  A
O437       Ni440   1.912       .  S
O437        C442   1.280       .  A
O438       Ni440   1.915   1_455  S
O438        C441   1.282       .  A
Ni439      Ni440   2.385       .  S
C441        C527   1.489       .  S
C442        C653   1.484       .  S
C443        C639   1.481       .  S
C444        C541   1.474       .  S
C445        C510   1.489       .  S
C445        C446   1.411       .  A
C446        C447   1.408       .  A
C446        H451   1.083       .  S
C447        C723   1.483       .  S
C447        C448   1.402       .  A
C448        H452   1.084       .  S
C449        C706   1.467       .  S
C449        C450   1.394       .  A
C450        H453   1.084       .  S
C454        C513   1.486       .  S
C454        C455   1.405       .  A
C454        C459   1.405       .  A
C455        C456   1.404       .  A
C455        H460   1.084       .  S
C456        C496   1.484       .  S
C456        C457   1.403       .  A
C457        H461   1.083       .  S
C458        C482   1.491       .  S
C463        C499   1.485       .  S
C463        C464   1.407       .  A
C464        C465   1.403       .  A
C464        H469   1.083       .  S
C465        C538   1.481       .  S
C465        C466   1.399       .  A
C466        H470   1.085       .  S
C467        C524   1.470       .  S
C467        C468   1.400       .  A
C468        H471   1.084       .  S
C472        C485   1.488       .  S
C472        C473   1.409       .  A
C473        C474   1.404       .  A
C473        H478   1.083       .  S
C474        C569   1.481       .  S
C474        C475   1.399       .  A
C475        H479   1.084       .  S
C476        C552   1.472       .  S
C476        C477   1.397       .  A
C477        H480   1.084       .  S
C481        C482   1.407       .  A
C481        C486   1.403       .  A
C481        H488   1.084       .  S
C483        C484   1.401       .  A
C483        N490   1.432       .  S
C484        H489   1.084       .  S
C485        C486   1.410       .  A
C486        N487   1.432       .  S
N487        H491   1.045       .  S
N487        H492   1.046       .  S
N490        H493   1.046       .  S
N490        H494   1.045       .  S
C495        C496   1.403       .  A
C495        C500   1.400       .  A
C495        H502   1.084       .  S
C497        C498   1.407       .  A
C498        H503   1.084       .  S
C499        C500   1.411       .  A
C509        C514   1.400       .  A
C509        H516   1.084       .  S
C510        C511   1.412       .  A
C511        C512   1.406       .  A
C511        N518   1.432       .  S
C512        C513   1.405       .  A
C512        H517   1.084       .  S
C514        N515   1.433       .  S
N515        H519   1.045       .  S
N515        H520   1.046       .  S
N518        H521   1.047       .  S
N518        H522   1.044       .  S
C523        C524   1.398       .  A
C523        C528   1.405       .  A
C523        H530   1.084       .  S
C524        C525   1.406       .  A
C525        C526   1.397       .  A
C525        N532   1.432       .  S
C526        C527   1.409       .  A
C526        H531   1.083       .  S
C527        C528   1.421       .  A
C528        N529   1.438       .  S
N529        H533   1.046       .  S
N529        H534   1.046       .  S
N532        H535   1.047       .  S
N532        H536   1.044       .  S
C537        C538   1.404       .  A
C537        C542   1.400       .  A
C537        H544   1.084       .  S
C538        C539   1.411       .  A
C539        C540   1.402       .  A
C539        N546   1.432       .  S
C540        C541   1.402       .  A
C540        H545   1.084       .  S
C541        C542   1.409       .  A
C542        N543   1.433       .  S
N543        H547   1.047       .  S
N543        H548   1.045       .  S
N546        H549   1.046       .  S
N546        H550   1.045       .  S
C551        C552   1.399       .  A
C551        C556   1.401       .  A
C551        H558   1.084       .  S
C552        C553   1.409       .  A
C553        C554   1.399       .  A
C553        N560   1.433       .  S
C554        C555   1.409       .  A
C554        H559   1.083       .  S
C555        C556   1.416       .  A
C556        N557   1.432       .  S
N557        H561   1.045       .  S
N557        H562   1.046       .  S
N560        H563   1.045       .  S
N560        H564   1.045       .  S
C565        C566   1.404       .  A
C565        C570   1.401       .  A
C565        H572   1.084       .  S
C566        C567   1.416       .  A
C567        C568   1.407       .  A
C567        N574   1.438       .  S
C568        C569   1.402       .  A
C568        H573   1.084       .  S
C569        C570   1.409       .  A
C570        N571   1.433       .  S
N571        H575   1.045       .  S
N571        H576   1.046       .  S
N574        H577   1.046       .  S
N574        H578   1.045       .  S
C579        C580   1.406       .  A
C579        C584   1.402       .  A
C579        H586   1.084       .  S
C580        C581   1.415       .  A
C581        C582   1.403       .  A
C581        N588   1.432       .  S
C582        C583   1.402       .  A
C582        H587   1.084       .  S
C583        C584   1.408       .  A
C584        N585   1.432       .  S
N585        H589   1.042       .  S
N585        H590   1.049       .  S
N588        H591   1.045       .  S
N588        H592   1.046       .  S
C593        C594   1.407       .  A
C593        C598   1.401       .  A
C593        H600   1.083       .  S
C594        C595   1.417       .  A
C595        C596   1.406       .  A
C595        N602   1.438       .  S
C596        C597   1.402       .  A
C596        H601   1.084       .  S
C597        C598   1.413       .  A
C598        N599   1.433       .  S
N599        H603   1.043       .  S
N599        H604   1.046       .  S
N602        H605   1.046       .  S
N602        H606   1.046       .  S
C607        C612   1.400       .  A
C607        H614   1.084       .  S
C608        C609   1.415       .  A
C609        C610   1.404       .  A
C609        N616   1.432       .  S
C610        C611   1.401       .  A
C610        H615   1.084       .  S
C612        N613   1.433       .  S
N613        H617   1.046       .  S
N613        H618   1.045       .  S
N616        H619   1.046       .  S
N616        H620   1.046       .  S
C621        C626   1.400       .  A
C621        H628   1.084       .  S
C622        C623   1.412   1_554  A
C623        C624   1.402       .  A
C623        N630   1.433       .  S
C624        C625   1.405   1_556  A
C624        H629   1.084       .  S
C626        N627   1.432       .  S
N627        H631   1.046       .  S
N627        H632   1.045       .  S
N630        H633   1.046       .  S
N630        H634   1.046       .  S
C635        C636   1.400       .  A
C635        C640   1.402       .  A
C635        H642   1.084       .  S
C636        C637   1.407       .  A
C637        C638   1.401       .  A
C637        N644   1.433       .  S
C638        C639   1.406       .  A
C638        H643   1.084       .  S
C639        C640   1.413       .  A
C640        N641   1.432       .  S
N641        H645   1.047       .  S
N641        H646   1.044       .  S
N644        H647   1.046       .  S
N644        H648   1.046       .  S
C649        C650   1.399       .  A
C649        C654   1.396       .  A
C649        H656   1.084       .  S
C650        C651   1.408       .  A
C651        C652   1.404       .  A
C651        N658   1.438       .  S
C652        C653   1.408       .  A
C652        H657   1.083       .  S
C653        C654   1.420       .  A
C654        N655   1.432       .  S
N655        H659   1.046       .  S
N655        H660   1.044       .  S
N658        H661   1.045       .  S
N658        H662   1.046       .  S
C663        C668   1.399       .  A
C663        H670   1.084       .  S
C664        C665   1.410       .  A
C665        C666   1.403       .  A
C665        N672   1.432       .  S
C666        C667   1.404       .  A
C666        H671   1.084       .  S
C668        N669   1.432       .  S
N669        H673   1.046       .  S
N669        H674   1.046       .  S
N672        H675   1.045       .  S
N672        H676   1.046       .  S
C677        C678   1.400       .  A
C677        C682   1.401       .  A
C677        H684   1.084       .  S
C678        C679   1.413       .  A
C679        C680   1.397       .  A
C679        N686   1.439       .  S
C680        C681   1.406       .  A
C680        H685   1.084       .  S
C681        C682   1.414       .  A
C682        N683   1.433       .  S
N683        H687   1.044       .  S
N683        H688   1.047       .  S
N686        H689   1.043       .  S
N686        H690   1.045       .  S
C691        C692   1.409       .  A
C691        C696   1.401       .  A
C691        H698   1.083       .  S
C692        C693   1.423       .  A
C693        C694   1.399       .  A
C693        N700   1.432       .  S
C694        C695   1.399       .  A
C694        H699   1.084       .  S
C695        C696   1.403       .  A
C696        N697   1.432       .  S
N697        H701   1.045       .  S
N697        H702   1.046       .  S
N700        H703   1.043       .  S
N700        H704   1.047       .  S
C705        C706   1.400       .  A
C705        C710   1.399       .  A
C705        H712   1.084       .  S
C706        C707   1.407       .  A
C707        C708   1.399       .  A
C707        N714   1.438       .  S
C708        C709   1.406       .  A
C708        H713   1.084       .  S
C709        C710   1.413       .  A
C710        N711   1.433       .  S
N711        H715   1.046       .  S
N711        H716   1.045       .  S
N714        H717   1.043       .  S
N714        H718   1.048       .  S
C719        C720   1.404       .  A
C719        C724   1.405       .  A
C719        H726   1.084       .  S
C720        C721   1.419       .  A
C721        C722   1.398       .  A
C721        N728   1.433       .  S
C722        C723   1.401       .  A
C722        H727   1.084       .  S
C723        C724   1.412       .  A
C724        N725   1.438       .  S
N725        H729   1.045       .  S
N725        H730   1.046       .  S
N728        H731   1.046       .  S
N728        H732   1.044       .  S
