geometry optimzed in LAMMPS
_audit_creation_date              2020-11-30 
_audit_creation_method            'lammps2cif' 
_symmetry_space_group_name_H-M    'P1' 
_symmetry_Int_Tables_number       1 
_symmetry_cell_setting            triclinic 
loop_ 
_symmetry_equiv_pos_as_xyz 
  x,y,z 
_cell_length_a                    27.58411018938892 
_cell_length_b                    27.60975131497573 
_cell_length_c                    27.557315545715767 
_cell_angle_alpha                 84.1656060401685 
_cell_angle_beta                  83.4477396857305 
_cell_angle_gamma                 94.90537242250403 
loop_ 
_atom_site_label 
_atom_site_type_symbol 
_atom_site_fract_x 
_atom_site_fract_y 
_atom_site_fract_z 
_atom_site_charge 
C1          C  0.09541875  0.29482129  0.51448148     0.02960
C2          C  0.14616563  0.29400485  0.01087004    -0.13190
C3          C  0.16655316  0.24981451  0.00863018     0.00460
C4          C  0.13811997  0.20776441  0.00227339    -0.11720
C5          C  0.08744364  0.20565999  0.51179887     0.02950
C6          C  0.06524773  0.24977538  0.51709990    -0.11140
H7          H  0.16909697  0.32638479  0.01653258     0.08540
H8          H  0.15560924  0.17408800  0.00029748     0.06070
H9          H  0.02585207  0.24879907  0.52569771     0.05920
C10         C  0.40520314  0.17707255  0.11290999     0.02960
C11         C  0.35540573  0.17664120  0.10808505    -0.13190
C12         C  0.33363633  0.22011115  0.10548683     0.00460
C13         C  0.35871277  0.26324375  0.11398728    -0.11720
C14         C  0.40931012  0.26663865  0.11343219     0.02950
C15         C  0.43328800  0.22288189  0.11361214    -0.11140
H16         H  0.33500087  0.14347498  0.10039114     0.08540
H17         H  0.33968662  0.29612332  0.11252269     0.06070
H18         H  0.47286849  0.22468630  0.11123136     0.05920
C19         C  0.18765368  0.43689562  0.16064625     0.02960
C20         C  0.18509658  0.43801477  0.21143649    -0.13190
C21         C  0.22791254  0.44138159  0.23365874     0.00460
C22         C  0.27288578  0.43783141  0.20691336    -0.11720
C23         C  0.27773758  0.44047856  0.15607102     0.02950
C24         C  0.23460639  0.43952675  0.13220641    -0.11140
H25         H  0.15057576  0.44284279  0.23262414     0.08540
H26         H  0.30557842  0.44014352  0.22543039     0.06070
H27         H  0.23754537  0.44363310  0.09245354     0.05920
C28         C  0.31100079  0.03804718  0.46788486     0.02960
C29         C  0.31268325  0.04263297  0.41678234    -0.13190
C30         C  0.26922174  0.04047508  0.39548312     0.00460
C31         C  0.22462009  0.04168500  0.42391813    -0.11720
C32         C  0.22091872  0.03440351  0.47479186     0.02950
C33         C  0.26454806  0.03280425  0.99750698    -0.11140
H34         H  0.34698584  0.04004933  0.39410999     0.08540
H35         H  0.19136148  0.04048876  0.40623217     0.06070
H36         H  0.26238824  0.02500500  0.03704885     0.05920
C37         C  0.04924567  0.08178508  0.25396273     0.02960
C38         C  0.05263639  0.13246109  0.25425400    -0.13190
C39         C  0.05561860  0.15255520  0.29824482     0.00460
C40         C  0.06267781  0.12364853  0.34037550    -0.11720
C41         C  0.05292763  0.07321929  0.34318919     0.02950
C42         C  0.04716792  0.05143260  0.29937146    -0.11140
H43         H  0.04634142  0.15567646  0.22183395     0.08540
H44         H  0.06505689  0.14081764  0.37392490     0.06070
H45         H  0.03855212  0.01225285  0.30091153     0.05920
C46         C  0.45200939  0.39203199  0.37617564     0.02960
C47         C  0.45064018  0.42036405  0.33012824    -0.13190
C48         C  0.45011675  0.39661619  0.28662852     0.00460
C49         C  0.44896807  0.34595694  0.29058425    -0.11720
C50         C  0.45827115  0.32034273  0.33368664     0.02950
C51         C  0.45696161  0.34210402  0.37696204    -0.11140
H52         H  0.45318039  0.45990437  0.32785592     0.08540
H53         H  0.44977837  0.32714269  0.25778237     0.06070
H54         H  0.46553507  0.32144180  0.41002356     0.05920
O55         O  0.08016570  0.37725812  0.99167388    -0.86660
O56         O  0.44024033  0.46071774  0.22443576    -0.86830
O57         O  0.10694268  0.41239999  0.14240478    -0.88500
O58         O  0.47292233  0.32788404  0.12361726    -0.87250
O59         O  0.41306129  0.34813513  0.07584031    -0.86840
O60         O  0.14023078  0.49215055  0.12246840    -0.88210
O61         O  0.48834047  0.39984904  0.20484785    -0.86690
O62         O  0.05941760  0.34306712  0.07174804    -0.86280
Zr63       Zr  0.02328225  0.40510964  0.11739719     2.84280
O64         O  0.44450068  0.43236936  0.12032737    -1.08250
O65         O  0.07808649  0.45988020  0.06282748    -1.08980
C66         C  0.07629163  0.34111092  0.02640630     1.06450
C67         C  0.46035013  0.42140015  0.23561382     1.06390
C68         C  0.14247539  0.44714897  0.13904501     1.09370
C69         C  0.43409190  0.31720419  0.10353494     1.07150
H70         H  0.03695073  0.47977548  0.17443229     0.32710
O71         O  0.02508154  0.48305672  0.14281185    -1.29210
H72         H  0.49349868  0.37654279  0.02702578     0.32380
O73         O  0.49672250  0.40813405  0.03896137    -1.30880
O74         O  0.42313618  0.09588373  0.13836214    -0.86660
O75         O  0.06082460  0.00971409  0.40597091    -0.88150
O76         O  0.07176781  0.06621831  0.17131707    -0.86730
O77         O  0.34068836  0.43053632  0.09209590    -0.86780
O78         O  0.42680414  0.41080716  0.45734645    -0.86490
O79         O  0.15762760  0.04378873  0.03838821    -0.86300
O80         O  0.02433531  0.14389071  0.00369341    -0.86670
O81         O  0.39289743  0.06039106  0.48360367    -0.86130
O82         O  0.08320132  0.12590679  0.05358495    -0.87200
O83         O  0.35806064  0.48141931  0.00531915    -0.86350
O84         O  0.49213653  0.04656319  0.20711728    -0.86750
O85         O  0.14108434  0.49351924  0.47954471    -0.86480
O86         O  0.50727959  0.42821624  0.42347826    -0.86130
O87         O  0.35900153  0.47825083  0.15245923    -0.86530
O88         O  0.44253662  0.12848595  0.05762767    -0.86830
O89         O  0.51075728  0.06972856  0.42334295    -0.88170
Zr90       Zr  0.44654473  0.01108066  0.14624157     2.83100
Zr91       Zr  0.05375501  0.46092552  0.48469498     2.83500
Zr92       Zr  0.07900320  0.03885069  0.08823691     2.84090
Zr93       Zr  0.41892971  0.43523023  0.04157913     2.83360
Zr94       Zr  0.47556462  0.06614641  0.01078925     2.84220
O95         O  0.47496107  0.48799319  0.98645074    -1.08740
O96         O  0.50080706  0.06441638  0.08968364    -1.08240
C97         C  0.42671233  0.13139124  0.10300125     1.06420
C98         C  0.03995436  0.04819218  0.39366882     1.09040
C99         C  0.03724334  0.06294195  0.20806012     1.06590
C100        C  0.32882507  0.45080085  0.13116163     1.06950
C101        C  0.46205420  0.41329833  0.42141455     1.06540
C102        C  0.17036076  0.02236675  0.00029043     1.06090
C103        C  0.06227776  0.15570505  0.02457607     1.06510
C104        C  0.35667360  0.02631813  0.48769174     1.06030
H105        H  0.07757504  0.06247688  0.48619132     0.32700
O106        O  0.05480243  0.04024503  0.00904226    -1.29840
H107        H  0.38956996  0.02617127  0.07140358     0.32730
O108        O  0.42122314  0.01368157  0.06824943    -1.31220
C109        C  0.03075023  0.19575441  0.30645819    -0.00330
C110        C  0.05616254  0.24180781  0.29358164    -0.12200
C111        C  0.03336771  0.28307949  0.30424935     0.01910
C112        C  0.48474283  0.27769158  0.32840388    -0.00410
C113        C  0.45957763  0.23166170  0.34173517    -0.12140
C114        C  0.48206531  0.19047143  0.33058819     0.01790
H115        H  0.09352582  0.24537154  0.27542112     0.14770
H116        H  0.42200768  0.22811815  0.35937362     0.14770
C117        C  0.45420517  0.14324896  0.34370558     0.36430
C118        C  0.05998913  0.33058368  0.28904018     0.36330
N119        N  0.43180329  0.10552976  0.35436104    -0.43920
N120        N  0.08111607  0.36863753  0.27650414    -0.43910
C121        C  0.26582016  0.01759238  0.35047219    -0.00330
C122        C  0.24107288  0.04069686  0.31449368    -0.12200
C123        C  0.22335320  0.01467790  0.27853364     0.01910
C124        C  0.23038822  0.46454272  0.27862626    -0.00410
C125        C  0.25466336  0.44136889  0.31490924    -0.12140
C126        C  0.27290853  0.46746143  0.35043837     0.01790
H127        H  0.23411859  0.07868150  0.31572616     0.14770
H128        H  0.26150187  0.40333157  0.31380335     0.14770
C129        C  0.29722454  0.44132008  0.38729709     0.36430
C130        C  0.20009445  0.04087111  0.24087220     0.36330
N131        N  0.31687106  0.42027974  0.41655559    -0.43920
N132        N  0.18146342  0.06196725  0.21081792    -0.43910
C133        C  0.20952108  0.24229783  0.03312637    -0.00330
C134        C  0.25582148  0.25700134  0.00780798    -0.12200
C135        C  0.29709673  0.24837411  0.03059597     0.01910
C136        C  0.29141374  0.22456723  0.07921091    -0.00410
C137        C  0.24518059  0.20938780  0.10426197    -0.12140
C138        C  0.20395741  0.21849565  0.08178757     0.01790
H139        H  0.25957049  0.27506959  0.47053336     0.14770
H140        H  0.24140582  0.19188016  0.14176859     0.14770
C141        C  0.15644646  0.20402776  0.10986193     0.36430
C142        C  0.34476213  0.26498309  0.50379879     0.36330
N143        N  0.11858395  0.19229817  0.13258168    -0.43920
N144        N  0.38283088  0.27865979  0.48237572    -0.43910
C145        C  0.09541877  0.29482127  0.01448147     0.02960
C146        C  0.14616561  0.29400487  0.51087014    -0.13190
C147        C  0.16655315  0.24981453  0.50863032     0.00460
C148        C  0.13811998  0.20776442  0.50227351    -0.11720
C149        C  0.08744364  0.20565998  0.01179884     0.02950
C150        C  0.06524774  0.24977536  0.01709993    -0.11140
H151        H  0.16909693  0.32638481  0.51653270     0.08540
H152        H  0.15560925  0.17408801  0.50029763     0.06070
H153        H  0.02585209  0.24879905  0.02569780     0.05920
C154        C  0.40520311  0.17707257  0.61291004     0.02960
C155        C  0.35540567  0.17664122  0.60808521    -0.13190
C156        C  0.33363627  0.22011117  0.60548706     0.00460
C157        C  0.35871274  0.26324376  0.61398749    -0.11720
C158        C  0.40931010  0.26663867  0.61343228     0.02950
C159        C  0.43328798  0.22288191  0.61361214    -0.11140
H160        H  0.33500079  0.14347500  0.60039132     0.08540
H161        H  0.33968659  0.29612334  0.61252295     0.06070
H162        H  0.47286848  0.22468631  0.61123128     0.05920
C163        C  0.18765365  0.43689564  0.66064626     0.02960
C164        C  0.18509655  0.43801480  0.71143650    -0.13190
C165        C  0.22791251  0.44138162  0.73365875     0.00460
C166        C  0.27288575  0.43783143  0.70691337    -0.11720
C167        C  0.27773756  0.44047857  0.65607103     0.02950
C168        C  0.23460636  0.43952676  0.63220642    -0.11140
H169        H  0.15057574  0.44284283  0.73262414     0.08540
H170        H  0.30557839  0.44014354  0.72543040     0.06070
H171        H  0.23754535  0.44363311  0.59245355     0.05920
C172        C  0.31100082  0.03804718  0.96788486     0.02960
C173        C  0.31268328  0.04263299  0.91678234    -0.13190
C174        C  0.26922176  0.04047512  0.89548312     0.00460
C175        C  0.22462012  0.04168503  0.92391814    -0.11720
C176        C  0.22091876  0.03440352  0.97479187     0.02950
C177        C  0.26454803  0.03280426  0.49750698    -0.11140
H178        H  0.34698587  0.04004936  0.89410998     0.08540
H179        H  0.19136151  0.04048881  0.90623218     0.06070
H180        H  0.26238820  0.02500503  0.53704885     0.05920
C181        C  0.04924566  0.08178507  0.75396273     0.02960
C182        C  0.05263638  0.13246108  0.75425401    -0.13190
C183        C  0.05561861  0.15255518  0.79824483     0.00460
C184        C  0.06267784  0.12364852  0.84037550    -0.11720
C185        C  0.05292766  0.07321927  0.84318919     0.02950
C186        C  0.04716793  0.05143258  0.79937145    -0.11140
H187        H  0.04634140  0.15567646  0.72183397     0.08540
H188        H  0.06505693  0.14081762  0.87392490     0.06070
H189        H  0.03855213  0.01225284  0.80091153     0.05920
C190        C  0.45200942  0.39203199  0.87617563     0.02960
C191        C  0.45064020  0.42036406  0.83012824    -0.13190
C192        C  0.45011676  0.39661620  0.78662852     0.00460
C193        C  0.44896811  0.34595694  0.79058425    -0.11720
C194        C  0.45827121  0.32034275  0.83368663     0.02950
C195        C  0.45696167  0.34210404  0.87696203    -0.11140
H196        H  0.45318039  0.45990437  0.82785592     0.08540
H197        H  0.44977841  0.32714269  0.75778236     0.06070
H198        H  0.46553515  0.32144182  0.91002355     0.05920
O199        O  0.08016566  0.37725812  0.49167387    -0.86660
O200        O  0.44024031  0.46071774  0.72443576    -0.86830
O201        O  0.10694266  0.41240001  0.64240478    -0.88500
O202        O  0.47292232  0.32788405  0.62361727    -0.87250
O203        O  0.41306125  0.34813513  0.57584034    -0.86840
O204        O  0.14023076  0.49215056  0.62246841    -0.88210
O205        O  0.48834046  0.39984905  0.70484785    -0.86690
O206        O  0.05941758  0.34306714  0.57174803    -0.86280
Zr207      Zr  0.02328223  0.40510965  0.61739718     2.84280
O208        O  0.44450066  0.43236936  0.62032738    -1.08250
O209        O  0.07808647  0.45988021  0.56282747    -1.08980
C210        C  0.07629160  0.34111093  0.52640630     1.06450
C211        C  0.46035013  0.42140016  0.73561382     1.06390
C212        C  0.14247536  0.44714899  0.63904502     1.09370
C213        C  0.43409188  0.31720420  0.60353498     1.07150
H214        H  0.03695071  0.47977549  0.67443228     0.32710
O215        O  0.02508151  0.48305673  0.64281185    -1.29210
H216        H  0.49349864  0.37654279  0.52702578     0.32380
O217        O  0.49672247  0.40813405  0.53896137    -1.30880
O218        O  0.42313613  0.09588374  0.63836215    -0.86660
O219        O  0.06082464  0.00971408  0.90597091    -0.88150
O220        O  0.07176779  0.06621832  0.67131706    -0.86730
O221        O  0.34068833  0.43053632  0.59209591    -0.86780
O222        O  0.42680418  0.41080717  0.95734644    -0.86490
O223        O  0.15762756  0.04378873  0.53838820    -0.86300
O224        O  0.02433529  0.14389073  0.50369341    -0.86670
O225        O  0.39289747  0.06039105  0.98360366    -0.86130
O226        O  0.08320129  0.12590679  0.55358496    -0.87200
O227        O  0.35806061  0.48141931  0.50531916    -0.86350
O228        O  0.49213651  0.04656320  0.70711728    -0.86750
O229        O  0.14108438  0.49351923  0.97954472    -0.86480
O230        O  0.50727963  0.42821624  0.92347826    -0.86130
O231        O  0.35900150  0.47825083  0.65245924    -0.86530
O232        O  0.44253657  0.12848597  0.55762768    -0.86830
O233        O  0.51075732  0.06972853  0.92334295    -0.88170
Zr234      Zr  0.44654470  0.01108067  0.64624157     2.83100
Zr235      Zr  0.05375504  0.46092552  0.98469498     2.83500
Zr236      Zr  0.07900317  0.03885070  0.58823691     2.84090
Zr237      Zr  0.41892968  0.43523023  0.54157914     2.83360
Zr238      Zr  0.47556459  0.06614644  0.51078926     2.84220
O239        O  0.47496104  0.48799320  0.48645074    -1.08740
O240        O  0.50080703  0.06441640  0.58968365    -1.08240
C241        C  0.42671228  0.13139126  0.60300127     1.06420
C242        C  0.03995440  0.04819216  0.89366881     1.09040
C243        C  0.03724332  0.06294195  0.70806012     1.06590
C244        C  0.32882504  0.45080086  0.63116164     1.06950
C245        C  0.46205424  0.41329833  0.92141454     1.06540
C246        C  0.17036073  0.02236675  0.50029042     1.06090
C247        C  0.06227775  0.15570506  0.52457608     1.06510
C248        C  0.35667364  0.02631813  0.98769173     1.06030
H249        H  0.07757508  0.06247687  0.98619132     0.32700
O250        O  0.05480240  0.04024504  0.50904226    -1.29840
H251        H  0.38956993  0.02617128  0.57140359     0.32730
O252        O  0.42122311  0.01368158  0.56824944    -1.31220
C253        C  0.03075025  0.19575440  0.80645821    -0.00330
C254        C  0.05616255  0.24180780  0.79358162    -0.12200
C255        C  0.03336773  0.28307948  0.80424931     0.01910
C256        C  0.48474288  0.27769159  0.82840387    -0.00410
C257        C  0.45957769  0.23166171  0.84173521    -0.12140
C258        C  0.48206536  0.19047144  0.83058826     0.01790
H259        H  0.09352582  0.24537152  0.77542107     0.14770
H260        H  0.42200775  0.22811817  0.85937370     0.14770
C261        C  0.45420522  0.14324898  0.84370568     0.36430
C262        C  0.05998914  0.33058368  0.78904010     0.36330
N263        N  0.43180334  0.10552978  0.85436117    -0.43920
N264        N  0.08111608  0.36863751  0.77650403    -0.43910
C265        C  0.26582017  0.01759243  0.85047219    -0.00330
C266        C  0.24107288  0.04069690  0.81449370    -0.12200
C267        C  0.22335318  0.01467795  0.77853366     0.01910
C268        C  0.23038819  0.46454274  0.77862627    -0.00410
C269        C  0.25466335  0.44136891  0.81490924    -0.12140
C270        C  0.27290854  0.46746145  0.85043836     0.01790
H271        H  0.23411858  0.07868155  0.81572619     0.14770
H272        H  0.26150186  0.40333159  0.81380334     0.14770
C273        C  0.29722457  0.44132010  0.88729706     0.36430
C274        C  0.20009440  0.04087116  0.74087224     0.36330
N275        N  0.31687112  0.42027976  0.91655555    -0.43920
N276        N  0.18146334  0.06196729  0.71081798    -0.43910
C277        C  0.20952104  0.24229787  0.53312655    -0.00330
C278        C  0.25582145  0.25700138  0.50780818    -0.12200
C279        C  0.29709669  0.24837414  0.53059620     0.01910
C280        C  0.29141368  0.22456728  0.57921114    -0.00410
C281        C  0.24518051  0.20938786  0.60426218    -0.12140
C282        C  0.20395735  0.21849570  0.58178775     0.01790
H283        H  0.25957050  0.27506957  0.97053316     0.14770
H284        H  0.24140573  0.19188023  0.64176881     0.14770
C285        C  0.15644638  0.20402781  0.60986209     0.36430
C286        C  0.34476216  0.26498308  0.00379856     0.36330
N287        N  0.11858385  0.19229821  0.63258181    -0.43920
N288        N  0.38283090  0.27865979  0.98237548    -0.43910
C289        C  0.09541874  0.79482129  0.51448148     0.02960
C290        C  0.14616563  0.79400486  0.01087005    -0.13190
C291        C  0.16655317  0.74981452  0.00863019     0.00460
C292        C  0.13811998  0.70776441  0.00227341    -0.11720
C293        C  0.08744363  0.70565999  0.51179887     0.02950
C294        C  0.06524772  0.74977538  0.51709991    -0.11140
H295        H  0.16909696  0.82638480  0.01653259     0.08540
H296        H  0.15560924  0.67408801  0.00029749     0.06070
H297        H  0.02585206  0.74879906  0.52569773     0.05920
C298        C  0.40520314  0.67707255  0.11290999     0.02960
C299        C  0.35540572  0.67664120  0.10808507    -0.13190
C300        C  0.33363632  0.72011115  0.10548686     0.00460
C301        C  0.35871277  0.76324375  0.11398731    -0.11720
C302        C  0.40931012  0.76663865  0.11343221     0.02950
C303        C  0.43328800  0.72288189  0.11361214    -0.11140
H304        H  0.33500086  0.64347498  0.10039116     0.08540
H305        H  0.33968661  0.79612332  0.11252273     0.06070
H306        H  0.47286849  0.72468630  0.11123135     0.05920
C307        C  0.18765367  0.93689561  0.16064625     0.02960
C308        C  0.18509657  0.93801474  0.21143649    -0.13190
C309        C  0.22791253  0.94138156  0.23365874     0.00460
C310        C  0.27288578  0.93783139  0.20691336    -0.11720
C311        C  0.27773758  0.94047855  0.15607102     0.02950
C312        C  0.23460638  0.93952675  0.13220641    -0.11140
H313        H  0.15057576  0.94284276  0.23262414     0.08540
H314        H  0.30557841  0.94014349  0.22543039     0.06070
H315        H  0.23754537  0.94363312  0.09245354     0.05920
C316        C  0.31100079  0.53804718  0.46788487     0.02960
C317        C  0.31268326  0.54263299  0.41678234    -0.13190
C318        C  0.26922174  0.54047511  0.39548312     0.00460
C319        C  0.22462009  0.54168502  0.42391813    -0.11720
C320        C  0.22091873  0.53440352  0.47479186     0.02950
C321        C  0.26454806  0.53280425  0.99750698    -0.11140
H322        H  0.34698585  0.54004937  0.39410999     0.08540
H323        H  0.19136149  0.54048879  0.40623217     0.06070
H324        H  0.26238825  0.52500500  0.03704885     0.05920
C325        C  0.04924567  0.58178508  0.25396273     0.02960
C326        C  0.05263639  0.63246109  0.25425401    -0.13190
C327        C  0.05561860  0.65255520  0.29824483     0.00460
C328        C  0.06267781  0.62364853  0.34037550    -0.11720
C329        C  0.05292763  0.57321929  0.34318919     0.02950
C330        C  0.04716792  0.55143260  0.29937146    -0.11140
H331        H  0.04634141  0.65567647  0.22183396     0.08540
H332        H  0.06505688  0.64081764  0.37392490     0.06070
H333        H  0.03855213  0.51225285  0.30091153     0.05920
C334        C  0.45200939  0.89203199  0.37617564     0.02960
C335        C  0.45064018  0.92036405  0.33012824    -0.13190
C336        C  0.45011675  0.89661619  0.28662852     0.00460
C337        C  0.44896807  0.84595694  0.29058425    -0.11720
C338        C  0.45827116  0.82034274  0.33368664     0.02950
C339        C  0.45696161  0.84210403  0.37696204    -0.11140
H340        H  0.45318039  0.95990437  0.32785592     0.08540
H341        H  0.44977838  0.82714269  0.25778237     0.06070
H342        H  0.46553508  0.82144181  0.41002356     0.05920
O343        O  0.08016569  0.87725812  0.99167388    -0.86660
O344        O  0.44024032  0.96071773  0.22443576    -0.86830
O345        O  0.10694268  0.91239999  0.14240478    -0.88500
O346        O  0.47292233  0.82788404  0.12361726    -0.87250
O347        O  0.41306129  0.84813513  0.07584031    -0.86840
O348        O  0.14023078  0.99215054  0.12246840    -0.88210
O349        O  0.48834047  0.89984904  0.20484785    -0.86690
O350        O  0.05941759  0.84306712  0.07174804    -0.86280
Zr351      Zr  0.02328224  0.90510964  0.11739719     2.84280
O352        O  0.44450068  0.93236936  0.12032737    -1.08250
O353        O  0.07808649  0.95988019  0.06282748    -1.08980
C354        C  0.07629162  0.84111092  0.02640630     1.06450
C355        C  0.46035013  0.92140015  0.23561382     1.06390
C356        C  0.14247538  0.94714896  0.13904501     1.09370
C357        C  0.43409189  0.81720419  0.10353495     1.07150
H358        H  0.03695072  0.97977548  0.17443229     0.32710
O359        O  0.02508153  0.98305672  0.14281185    -1.29210
H360        H  0.49349867  0.87654279  0.02702578     0.32380
O361        O  0.49672250  0.90813404  0.03896137    -1.30880
O362        O  0.42313617  0.59588373  0.13836214    -0.86660
O363        O  0.06082461  0.50971409  0.40597091    -0.88150
O364        O  0.07176782  0.56621832  0.17131707    -0.86730
O365        O  0.34068836  0.93053632  0.09209590    -0.86780
O366        O  0.42680414  0.91080716  0.45734645    -0.86490
O367        O  0.15762760  0.54378873  0.03838821    -0.86300
O368        O  0.02433531  0.64389071  0.00369341    -0.86670
O369        O  0.39289743  0.56039106  0.48360367    -0.86130
O370        O  0.08320132  0.62590679  0.05358495    -0.87200
O371        O  0.35806064  0.98141930  0.00531915    -0.86350
O372        O  0.49213653  0.54656320  0.20711728    -0.86750
O373        O  0.14108433  0.99351924  0.47954471    -0.86480
O374        O  0.50727959  0.92821624  0.42347826    -0.86130
O375        O  0.35900153  0.97825082  0.15245923    -0.86530
O376        O  0.44253662  0.62848595  0.05762767    -0.86830
O377        O  0.51075729  0.56972855  0.42334295    -0.88170
Zr378      Zr  0.44654473  0.51108066  0.14624157     2.83100
Zr379      Zr  0.05375500  0.96092553  0.48469498     2.83500
Zr380      Zr  0.07900320  0.53885069  0.08823691     2.84090
Zr381      Zr  0.41892971  0.93523023  0.04157913     2.83360
Zr382      Zr  0.47556462  0.56614642  0.01078925     2.84220
O383        O  0.47496107  0.98799318  0.98645074    -1.08740
O384        O  0.50080707  0.56441639  0.08968364    -1.08240
C385        C  0.42671232  0.63139124  0.10300126     1.06420
C386        C  0.03995437  0.54819218  0.39366882     1.09040
C387        C  0.03724334  0.56294195  0.20806012     1.06590
C388        C  0.32882506  0.95080085  0.13116163     1.06950
C389        C  0.46205420  0.91329833  0.42141455     1.06540
C390        C  0.17036076  0.52236675  0.00029043     1.06090
C391        C  0.06227776  0.65570505  0.02457607     1.06510
C392        C  0.35667361  0.52631813  0.48769174     1.06030
H393        H  0.07757505  0.56247688  0.48619132     0.32700
O394        O  0.05480244  0.54024503  0.00904226    -1.29840
H395        H  0.38956996  0.52617127  0.07140358     0.32730
O396        O  0.42122314  0.51368157  0.06824943    -1.31220
C397        C  0.03075022  0.69575441  0.30645819    -0.00330
C398        C  0.05616253  0.74180781  0.29358164    -0.12200
C399        C  0.03336770  0.78307949  0.30424935     0.01910
C400        C  0.48474284  0.77769158  0.32840388    -0.00410
C401        C  0.45957764  0.73166170  0.34173518    -0.12140
C402        C  0.48206532  0.69047143  0.33058821     0.01790
H403        H  0.09352581  0.74537154  0.27542112     0.14770
H404        H  0.42200770  0.72811815  0.35937364     0.14770
C405        C  0.45420518  0.64324897  0.34370560     0.36430
C406        C  0.05998912  0.83058368  0.28904018     0.36330
N407        N  0.43180330  0.60552976  0.35436106    -0.43920
N408        N  0.08111606  0.86863753  0.27650414    -0.43910
C409        C  0.26582017  0.51759242  0.35047219    -0.00330
C410        C  0.24107289  0.54069689  0.31449368    -0.12200
C411        C  0.22335321  0.51467794  0.27853364     0.01910
C412        C  0.23038821  0.96454269  0.27862626    -0.00410
C413        C  0.25466335  0.94136886  0.31490924    -0.12140
C414        C  0.27290852  0.96746139  0.35043837     0.01790
H415        H  0.23411860  0.57868154  0.31572617     0.14770
H416        H  0.26150186  0.90333153  0.31380335     0.14770
C417        C  0.29722453  0.94132004  0.38729709     0.36430
C418        C  0.20009445  0.54087115  0.24087220     0.36330
N419        N  0.31687105  0.92027970  0.41655560    -0.43920
N420        N  0.18146342  0.56196728  0.21081792    -0.43910
C421        C  0.20952108  0.74229784  0.03312639    -0.00330
C422        C  0.25582148  0.75700135  0.00780800    -0.12200
C423        C  0.29709672  0.74837411  0.03059600     0.01910
C424        C  0.29141373  0.72456724  0.07921094    -0.00410
C425        C  0.24518058  0.70938781  0.10426200    -0.12140
C426        C  0.20395741  0.71849567  0.08178759     0.01790
H427        H  0.25957048  0.77506959  0.47053331     0.14770
H428        H  0.24140581  0.69188018  0.14176862     0.14770
C429        C  0.15644645  0.70402778  0.10986195     0.36430
C430        C  0.34476213  0.76498309  0.50379873     0.36330
N431        N  0.11858393  0.69229820  0.13258170    -0.43920
N432        N  0.38283087  0.77865980  0.48237566    -0.43910
C433        C  0.09541877  0.79482127  0.01448147     0.02960
C434        C  0.14616560  0.79400487  0.51087011    -0.13190
C435        C  0.16655314  0.74981453  0.50863029     0.00460
C436        C  0.13811997  0.70776442  0.50227348    -0.11720
C437        C  0.08744365  0.70565998  0.01179885     0.02950
C438        C  0.06524775  0.74977536  0.01709993    -0.11140
H439        H  0.16909692  0.82638481  0.51653267     0.08540
H440        H  0.15560924  0.67408802  0.50029760     0.06070
H441        H  0.02585209  0.74879905  0.02569779     0.05920
C442        C  0.40520311  0.67707257  0.61291002     0.02960
C443        C  0.35540568  0.67664121  0.60808516    -0.13190
C444        C  0.33363628  0.72011116  0.60548700     0.00460
C445        C  0.35871274  0.76324376  0.61398743    -0.11720
C446        C  0.40931010  0.76663866  0.61343225     0.02950
C447        C  0.43328798  0.72288190  0.61361214    -0.11140
H448        H  0.33500080  0.64347500  0.60039127     0.08540
H449        H  0.33968659  0.79612333  0.61252288     0.06070
H450        H  0.47286847  0.72468631  0.61123130     0.05920
C451        C  0.18765364  0.93689563  0.66064626     0.02960
C452        C  0.18509654  0.93801480  0.71143650    -0.13190
C453        C  0.22791251  0.94138161  0.73365875     0.00460
C454        C  0.27288575  0.93783143  0.70691337    -0.11720
C455        C  0.27773755  0.94047857  0.65607103     0.02950
C456        C  0.23460635  0.93952676  0.63220642    -0.11140
H457        H  0.15057573  0.94284282  0.73262414     0.08540
H458        H  0.30557839  0.94014353  0.72543040     0.06070
H459        H  0.23754534  0.94363311  0.59245355     0.05920
C460        C  0.31100082  0.53804718  0.96788486     0.02960
C461        C  0.31268329  0.54263300  0.91678234    -0.13190
C462        C  0.26922176  0.54047513  0.89548312     0.00460
C463        C  0.22462012  0.54168504  0.92391814    -0.11720
C464        C  0.22091876  0.53440352  0.97479187     0.02950
C465        C  0.26454803  0.53280426  0.49750698    -0.11140
H466        H  0.34698587  0.54004937  0.89410998     0.08540
H467        H  0.19136151  0.54048881  0.90623218     0.06070
H468        H  0.26238821  0.52500501  0.53704886     0.05920
C469        C  0.04924566  0.58178507  0.75396273     0.02960
C470        C  0.05263638  0.63246108  0.75425401    -0.13190
C471        C  0.05561861  0.65255519  0.79824483     0.00460
C472        C  0.06267784  0.62364852  0.84037550    -0.11720
C473        C  0.05292766  0.57321927  0.84318919     0.02950
C474        C  0.04716793  0.55143258  0.79937145    -0.11140
H475        H  0.04634139  0.65567646  0.72183397     0.08540
H476        H  0.06505692  0.64081762  0.87392490     0.06070
H477        H  0.03855214  0.51225284  0.80091152     0.05920
C478        C  0.45200941  0.89203199  0.87617563     0.02960
C479        C  0.45064019  0.92036406  0.83012824    -0.13190
C480        C  0.45011674  0.89661620  0.78662852     0.00460
C481        C  0.44896806  0.84595695  0.79058425    -0.11720
C482        C  0.45827116  0.82034274  0.83368663     0.02950
C483        C  0.45696164  0.84210403  0.87696203    -0.11140
H484        H  0.45318039  0.95990438  0.82785592     0.08540
H485        H  0.44977835  0.82714270  0.75778236     0.06070
H486        H  0.46553512  0.82144181  0.91002354     0.05920
O487        O  0.08016565  0.87725813  0.49167388    -0.86660
O488        O  0.44024030  0.96071774  0.72443576    -0.86830
O489        O  0.10694265  0.91240000  0.64240478    -0.88500
O490        O  0.47292231  0.82788405  0.62361727    -0.87250
O491        O  0.41306125  0.84813513  0.57584033    -0.86840
O492        O  0.14023075  0.99215056  0.62246841    -0.88210
O493        O  0.48834044  0.89984905  0.70484785    -0.86690
O494        O  0.05941757  0.84306713  0.57174803    -0.86280
Zr495      Zr  0.02328222  0.90510965  0.61739718     2.84280
O496        O  0.44450065  0.93236937  0.62032738    -1.08250
O497        O  0.07808646  0.95988020  0.56282747    -1.08980
C498        C  0.07629159  0.84111093  0.52640630     1.06450
C499        C  0.46035011  0.92140017  0.73561382     1.06390
C500        C  0.14247535  0.94714898  0.63904502     1.09370
C501        C  0.43409187  0.81720420  0.60353497     1.07150
H502        H  0.03695070  0.97977549  0.67443229     0.32710
O503        O  0.02508151  0.98305673  0.64281185    -1.29210
H504        H  0.49349864  0.87654280  0.52702578     0.32380
O505        O  0.49672246  0.90813405  0.53896137    -1.30880
O506        O  0.42313614  0.59588374  0.63836214    -0.86660
O507        O  0.06082464  0.50971408  0.90597091    -0.88150
O508        O  0.07176779  0.56621832  0.67131706    -0.86730
O509        O  0.34068833  0.93053633  0.59209591    -0.86780
O510        O  0.42680417  0.91080717  0.95734644    -0.86490
O511        O  0.15762757  0.54378873  0.53838820    -0.86300
O512        O  0.02433529  0.64389073  0.50369341    -0.86670
O513        O  0.39289747  0.56039105  0.98360366    -0.86130
O514        O  0.08320129  0.62590680  0.55358496    -0.87200
O515        O  0.35806061  0.98141931  0.50531916    -0.86350
O516        O  0.49213651  0.54656320  0.70711728    -0.86750
O517        O  0.14108437  0.99351923  0.97954472    -0.86480
O518        O  0.50727962  0.92821623  0.92347826    -0.86130
O519        O  0.35900150  0.97825083  0.65245924    -0.86530
O520        O  0.44253658  0.62848596  0.55762768    -0.86830
O521        O  0.51075732  0.56972854  0.92334295    -0.88170
Zr522      Zr  0.44654470  0.51108067  0.64624157     2.83100
Zr523      Zr  0.05375504  0.96092552  0.98469498     2.83500
Zr524      Zr  0.07900317  0.53885070  0.58823691     2.84090
Zr525      Zr  0.41892968  0.93523024  0.54157914     2.83360
Zr526      Zr  0.47556459  0.56614643  0.51078926     2.84220
O527        O  0.47496103  0.98799320  0.48645075    -1.08740
O528        O  0.50080704  0.56441640  0.58968364    -1.08240
C529        C  0.42671228  0.63139125  0.60300127     1.06420
C530        C  0.03995440  0.54819217  0.89366881     1.09040
C531        C  0.03724332  0.56294195  0.70806012     1.06590
C532        C  0.32882503  0.95080086  0.63116164     1.06950
C533        C  0.46205423  0.91329833  0.92141454     1.06540
C534        C  0.17036073  0.52236676  0.50029042     1.06090
C535        C  0.06227774  0.65570506  0.52457607     1.06510
C536        C  0.35667364  0.52631813  0.98769173     1.06030
H537        H  0.07757509  0.56247687  0.98619132     0.32700
O538        O  0.05480240  0.54024504  0.50904226    -1.29840
H539        H  0.38956993  0.52617128  0.57140359     0.32730
O540        O  0.42122311  0.51368157  0.56824944    -1.31220
C541        C  0.03075024  0.69575440  0.80645821    -0.00330
C542        C  0.05616254  0.74180780  0.79358160    -0.12200
C543        C  0.03336772  0.78307949  0.80424929     0.01910
C544        C  0.48474284  0.77769158  0.82840386    -0.00410
C545        C  0.45957765  0.73166171  0.84173521    -0.12140
C546        C  0.48206532  0.69047143  0.83058826     0.01790
H547        H  0.09352580  0.74537152  0.77542104     0.14770
H548        H  0.42200772  0.72811817  0.85937370     0.14770
C549        C  0.45420519  0.64324897  0.84370570     0.36430
C550        C  0.05998912  0.83058368  0.78904007     0.36330
N551        N  0.43180332  0.60552977  0.85436120    -0.43920
N552        N  0.08111605  0.86863751  0.77650398    -0.43910
C553        C  0.26582018  0.51759243  0.85047219    -0.00330
C554        C  0.24107288  0.54069691  0.81449370    -0.12200
C555        C  0.22335318  0.51467796  0.77853366     0.01910
C556        C  0.23038819  0.96454274  0.77862627    -0.00410
C557        C  0.25466334  0.94136891  0.81490924    -0.12140
C558        C  0.27290854  0.96746144  0.85043836     0.01790
H559        H  0.23411858  0.57868155  0.81572619     0.14770
H560        H  0.26150186  0.90333158  0.81380334     0.14770
C561        C  0.29722457  0.94132009  0.88729706     0.36430
C562        C  0.20009440  0.54087116  0.74087225     0.36330
N563        N  0.31687111  0.92027975  0.91655555    -0.43920
N564        N  0.18146334  0.56196730  0.71081798    -0.43910
C565        C  0.20952104  0.74229787  0.53312651    -0.00330
C566        C  0.25582144  0.75700138  0.50780813    -0.12200
C567        C  0.29709669  0.74837414  0.53059614     0.01910
C568        C  0.29141368  0.72456727  0.57921108    -0.00410
C569        C  0.24518052  0.70938785  0.60426213    -0.12140
C570        C  0.20395736  0.71849570  0.58178771     0.01790
H571        H  0.25957050  0.77506957  0.97053318     0.14770
H572        H  0.24140575  0.69188022  0.64176875     0.14770
C573        C  0.15644639  0.70402781  0.60986205     0.36430
C574        C  0.34476216  0.76498307  0.00379859     0.36330
N575        N  0.11858387  0.69229822  0.63258178    -0.43920
N576        N  0.38283091  0.77865978  0.98237551    -0.43910
C577        C  0.59541875  0.29482129  0.51448148     0.02960
C578        C  0.64616563  0.29400485  0.01087005    -0.13190
C579        C  0.66655316  0.24981451  0.00863018     0.00460
C580        C  0.63811997  0.20776441  0.00227340    -0.11720
C581        C  0.58744364  0.20565999  0.51179887     0.02950
C582        C  0.56524773  0.24977538  0.51709990    -0.11140
H583        H  0.66909697  0.32638479  0.01653259     0.08540
H584        H  0.65560924  0.17408800  0.00029748     0.06070
H585        H  0.52585207  0.24879907  0.52569771     0.05920
C586        C  0.90520314  0.17707256  0.11290999     0.02960
C587        C  0.85540572  0.17664120  0.10808506    -0.13190
C588        C  0.83363633  0.22011115  0.10548684     0.00460
C589        C  0.85871277  0.26324375  0.11398729    -0.11720
C590        C  0.90931012  0.26663866  0.11343220     0.02950
C591        C  0.93328800  0.22288189  0.11361214    -0.11140
H592        H  0.83500086  0.14347498  0.10039115     0.08540
H593        H  0.83968662  0.29612332  0.11252271     0.06070
H594        H  0.97286849  0.22468630  0.11123136     0.05920
C595        C  0.68765368  0.43689561  0.16064625     0.02960
C596        C  0.68509658  0.43801476  0.21143649    -0.13190
C597        C  0.72791254  0.44138158  0.23365874     0.00460
C598        C  0.77288578  0.43783141  0.20691336    -0.11720
C599        C  0.77773758  0.44047856  0.15607102     0.02950
C600        C  0.73460639  0.43952675  0.13220641    -0.11140
H601        H  0.65057576  0.44284278  0.23262414     0.08540
H602        H  0.80557842  0.44014351  0.22543039     0.06070
H603        H  0.73754537  0.44363311  0.09245354     0.05920
C604        C  0.81100079  0.03804718  0.46788486     0.02960
C605        C  0.81268325  0.04263297  0.41678234    -0.13190
C606        C  0.76922173  0.04047508  0.39548312     0.00460
C607        C  0.72462009  0.04168500  0.42391813    -0.11720
C608        C  0.72091872  0.03440352  0.47479186     0.02950
C609        C  0.76454806  0.03280425  0.99750698    -0.11140
H610        H  0.84698584  0.04004933  0.39410999     0.08540
H611        H  0.69136148  0.04048877  0.40623217     0.06070
H612        H  0.76238824  0.02500500  0.03704885     0.05920
C613        C  0.54924567  0.08178507  0.25396273     0.02960
C614        C  0.55263639  0.13246109  0.25425400    -0.13190
C615        C  0.55561861  0.15255520  0.29824482     0.00460
C616        C  0.56267781  0.12364853  0.34037550    -0.11720
C617        C  0.55292763  0.07321928  0.34318919     0.02950
C618        C  0.54716792  0.05143259  0.29937146    -0.11140
H619        H  0.54634142  0.15567646  0.22183395     0.08540
H620        H  0.56505689  0.14081764  0.37392490     0.06070
H621        H  0.53855212  0.01225285  0.30091153     0.05920
C622        C  0.95200939  0.39203199  0.37617564     0.02960
C623        C  0.95064019  0.42036405  0.33012824    -0.13190
C624        C  0.95011675  0.39661619  0.28662852     0.00460
C625        C  0.94896807  0.34595694  0.29058425    -0.11720
C626        C  0.95827115  0.32034274  0.33368664     0.02950
C627        C  0.95696160  0.34210403  0.37696204    -0.11140
H628        H  0.95318040  0.45990437  0.32785592     0.08540
H629        H  0.94977837  0.32714269  0.25778237     0.06070
H630        H  0.96553507  0.32144180  0.41002356     0.05920
O631        O  0.58016570  0.37725812  0.99167388    -0.86660
O632        O  0.94024033  0.46071774  0.22443575    -0.86830
O633        O  0.60694268  0.41239999  0.14240478    -0.88500
O634        O  0.97292233  0.32788404  0.12361726    -0.87250
O635        O  0.91306129  0.34813513  0.07584031    -0.86840
O636        O  0.64023079  0.49215055  0.12246840    -0.88210
O637        O  0.98834047  0.39984904  0.20484785    -0.86690
O638        O  0.55941760  0.34306712  0.07174804    -0.86280
Zr639      Zr  0.52328225  0.40510964  0.11739719     2.84280
O640        O  0.94450068  0.43236936  0.12032737    -1.08250
O641        O  0.57808649  0.45988020  0.06282748    -1.08980
C642        C  0.57629163  0.34111092  0.02640630     1.06450
C643        C  0.96035013  0.42140016  0.23561382     1.06390
C644        C  0.64247539  0.44714897  0.13904501     1.09370
C645        C  0.93409190  0.31720420  0.10353495     1.07150
H646        H  0.53695073  0.47977548  0.17443229     0.32710
O647        O  0.52508154  0.48305672  0.14281185    -1.29210
H648        H  0.99349868  0.37654279  0.02702578     0.32380
O649        O  0.99672250  0.40813405  0.03896137    -1.30880
O650        O  0.92313617  0.09588373  0.13836214    -0.86660
O651        O  0.56082460  0.00971409  0.40597091    -0.88150
O652        O  0.57176781  0.06621831  0.17131707    -0.86730
O653        O  0.84068836  0.43053632  0.09209590    -0.86780
O654        O  0.92680414  0.41080716  0.45734645    -0.86490
O655        O  0.65762760  0.04378873  0.03838820    -0.86300
O656        O  0.52433531  0.14389071  0.00369341    -0.86670
O657        O  0.89289743  0.06039106  0.48360367    -0.86130
O658        O  0.58320132  0.12590679  0.05358495    -0.87200
O659        O  0.85806064  0.48141931  0.00531915    -0.86350
O660        O  0.99213653  0.04656320  0.20711728    -0.86750
O661        O  0.64108434  0.49351924  0.47954471    -0.86480
O662        O  0.00727959  0.42821624  0.42347826    -0.86130
O663        O  0.85900153  0.47825083  0.15245923    -0.86530
O664        O  0.94253662  0.12848595  0.05762767    -0.86830
O665        O  0.01075728  0.06972856  0.42334295    -0.88170
Zr666      Zr  0.94654473  0.01108066  0.14624157     2.83100
Zr667      Zr  0.55375500  0.46092552  0.48469498     2.83500
Zr668      Zr  0.57900320  0.03885069  0.08823691     2.84090
Zr669      Zr  0.91892971  0.43523023  0.04157913     2.83360
Zr670      Zr  0.97556462  0.06614641  0.01078925     2.84220
O671        O  0.97496107  0.48799319  0.98645074    -1.08740
O672        O  0.00080706  0.06441639  0.08968364    -1.08240
C673        C  0.92671232  0.13139125  0.10300125     1.06420
C674        C  0.53995436  0.04819218  0.39366882     1.09040
C675        C  0.53724334  0.06294195  0.20806012     1.06590
C676        C  0.82882507  0.45080085  0.13116163     1.06950
C677        C  0.96205420  0.41329833  0.42141454     1.06540
C678        C  0.67036076  0.02236675  0.00029043     1.06090
C679        C  0.56227776  0.15570504  0.02457607     1.06510
C680        C  0.85667360  0.02631813  0.48769174     1.06030
H681        H  0.57757504  0.06247688  0.48619132     0.32700
O682        O  0.55480244  0.04024502  0.00904226    -1.29840
H683        H  0.88956996  0.02617127  0.07140358     0.32730
O684        O  0.92122314  0.01368157  0.06824943    -1.31220
C685        C  0.53075023  0.19575441  0.30645819    -0.00330
C686        C  0.55616254  0.24180781  0.29358164    -0.12200
C687        C  0.53336771  0.28307949  0.30424935     0.01910
C688        C  0.98474283  0.27769158  0.32840387    -0.00410
C689        C  0.95957763  0.23166170  0.34173517    -0.12140
C690        C  0.98206530  0.19047143  0.33058820     0.01790
H691        H  0.59352582  0.24537153  0.27542112     0.14770
H692        H  0.92200768  0.22811815  0.35937362     0.14770
C693        C  0.95420517  0.14324897  0.34370558     0.36430
C694        C  0.55998913  0.33058368  0.28904019     0.36330
N695        N  0.93180329  0.10552976  0.35436104    -0.43920
N696        N  0.58111607  0.36863752  0.27650415    -0.43910
C697        C  0.76582015  0.01759238  0.35047219    -0.00330
C698        C  0.74107288  0.04069686  0.31449368    -0.12200
C699        C  0.72335320  0.01467791  0.27853364     0.01910
C700        C  0.73038822  0.46454271  0.27862626    -0.00410
C701        C  0.75466335  0.44136888  0.31490924    -0.12140
C702        C  0.77290853  0.46746141  0.35043837     0.01790
H703        H  0.73411860  0.07868151  0.31572616     0.14770
H704        H  0.76150186  0.40333155  0.31380335     0.14770
C705        C  0.79722453  0.44132006  0.38729709     0.36430
C706        C  0.70009446  0.04087111  0.24087220     0.36330
N707        N  0.81687105  0.42027972  0.41655560    -0.43920
N708        N  0.68146343  0.06196725  0.21081791    -0.43910
C709        C  0.70952108  0.24229783  0.03312638    -0.00330
C710        C  0.75582148  0.25700135  0.00780799    -0.12200
C711        C  0.79709673  0.24837411  0.03059599     0.01910
C712        C  0.79141374  0.22456724  0.07921093    -0.00410
C713        C  0.74518059  0.20938780  0.10426198    -0.12140
C714        C  0.70395741  0.21849565  0.08178758     0.01790
H715        H  0.75957049  0.27506959  0.47053336     0.14770
H716        H  0.74140582  0.19188017  0.14176860     0.14770
C717        C  0.65644646  0.20402776  0.10986194     0.36430
C718        C  0.84476213  0.26498309  0.50379879     0.36330
N719        N  0.61858394  0.19229817  0.13258169    -0.43920
N720        N  0.88283088  0.27865979  0.48237572    -0.43910
C721        C  0.59541877  0.29482127  0.01448147     0.02960
C722        C  0.64616561  0.29400487  0.51087014    -0.13190
C723        C  0.66655315  0.24981453  0.50863032     0.00460
C724        C  0.63811998  0.20776442  0.50227351    -0.11720
C725        C  0.58744364  0.20565998  0.01179885     0.02950
C726        C  0.56524774  0.24977536  0.01709993    -0.11140
H727        H  0.66909693  0.32638481  0.51653270     0.08540
H728        H  0.65560925  0.17408801  0.50029763     0.06070
H729        H  0.52585209  0.24879905  0.02569779     0.05920
C730        C  0.90520311  0.17707257  0.61291004     0.02960
C731        C  0.85540567  0.17664122  0.60808521    -0.13190
C732        C  0.83363627  0.22011117  0.60548706     0.00460
C733        C  0.85871274  0.26324376  0.61398749    -0.11720
C734        C  0.90931011  0.26663866  0.61343227     0.02950
C735        C  0.93328798  0.22288191  0.61361214    -0.11140
H736        H  0.83500079  0.14347500  0.60039132     0.08540
H737        H  0.83968659  0.29612334  0.61252295     0.06070
H738        H  0.97286848  0.22468631  0.61123128     0.05920
C739        C  0.68765365  0.43689564  0.66064626     0.02960
C740        C  0.68509655  0.43801481  0.71143650    -0.13190
C741        C  0.72791251  0.44138162  0.73365875     0.00460
C742        C  0.77288575  0.43783144  0.70691337    -0.11720
C743        C  0.77773756  0.44047857  0.65607103     0.02950
C744        C  0.73460636  0.43952676  0.63220642    -0.11140
H745        H  0.65057574  0.44284284  0.73262414     0.08540
H746        H  0.80557839  0.44014354  0.72543040     0.06070
H747        H  0.73754535  0.44363311  0.59245355     0.05920
C748        C  0.81100082  0.03804718  0.96788486     0.02960
C749        C  0.81268328  0.04263299  0.91678233    -0.13190
C750        C  0.76922176  0.04047512  0.89548312     0.00460
C751        C  0.72462012  0.04168503  0.92391813    -0.11720
C752        C  0.72091876  0.03440352  0.97479186     0.02950
C753        C  0.76454803  0.03280426  0.49750698    -0.11140
H754        H  0.84698587  0.04004936  0.89410998     0.08540
H755        H  0.69136151  0.04048881  0.90623218     0.06070
H756        H  0.76238820  0.02500503  0.53704886     0.05920
C757        C  0.54924566  0.08178507  0.75396273     0.02960
C758        C  0.55263639  0.13246108  0.75425402    -0.13190
C759        C  0.55561863  0.15255518  0.79824484     0.00460
C760        C  0.56267785  0.12364851  0.84037550    -0.11720
C761        C  0.55292766  0.07321926  0.84318919     0.02950
C762        C  0.54716793  0.05143258  0.79937145    -0.11140
H763        H  0.54634141  0.15567646  0.72183397     0.08540
H764        H  0.56505695  0.14081761  0.87392490     0.06070
H765        H  0.53855212  0.01225284  0.80091153     0.05920
C766        C  0.95200942  0.39203199  0.87617563     0.02960
C767        C  0.95064020  0.42036406  0.83012824    -0.13190
C768        C  0.95011675  0.39661620  0.78662852     0.00460
C769        C  0.94896808  0.34595695  0.79058425    -0.11720
C770        C  0.95827118  0.32034275  0.83368663     0.02950
C771        C  0.95696165  0.34210403  0.87696203    -0.11140
H772        H  0.95318040  0.45990438  0.82785592     0.08540
H773        H  0.94977838  0.32714270  0.75778236     0.06070
H774        H  0.96553513  0.32144181  0.91002355     0.05920
O775        O  0.58016566  0.37725812  0.49167387    -0.86660
O776        O  0.94024031  0.46071774  0.72443576    -0.86830
O777        O  0.60694266  0.41240001  0.64240477    -0.88500
O778        O  0.97292232  0.32788405  0.62361727    -0.87250
O779        O  0.91306126  0.34813513  0.57584034    -0.86840
O780        O  0.64023076  0.49215056  0.62246841    -0.88210
O781        O  0.98834046  0.39984905  0.70484785    -0.86690
O782        O  0.55941758  0.34306713  0.57174803    -0.86280
Zr783      Zr  0.52328223  0.40510965  0.61739718     2.84280
O784        O  0.94450066  0.43236937  0.62032738    -1.08250
O785        O  0.57808647  0.45988021  0.56282747    -1.08980
C786        C  0.57629160  0.34111093  0.52640630     1.06450
C787        C  0.96035012  0.42140016  0.73561382     1.06390
C788        C  0.64247536  0.44714899  0.63904502     1.09370
C789        C  0.93409188  0.31720420  0.60353498     1.07150
H790        H  0.53695071  0.47977549  0.67443228     0.32710
O791        O  0.52508151  0.48305673  0.64281185    -1.29210
H792        H  0.99349864  0.37654279  0.52702578     0.32380
O793        O  0.99672247  0.40813405  0.53896137    -1.30880
O794        O  0.92313613  0.09588374  0.63836215    -0.86660
O795        O  0.56082464  0.00971407  0.90597091    -0.88150
O796        O  0.57176779  0.06621832  0.67131706    -0.86730
O797        O  0.84068833  0.43053632  0.59209591    -0.86780
O798        O  0.92680418  0.41080717  0.95734644    -0.86490
O799        O  0.65762756  0.04378874  0.53838820    -0.86300
O800        O  0.52433529  0.14389073  0.50369341    -0.86670
O801        O  0.89289746  0.06039105  0.98360366    -0.86130
O802        O  0.58320129  0.12590679  0.55358496    -0.87200
O803        O  0.85806061  0.48141931  0.50531916    -0.86350
O804        O  0.99213651  0.04656320  0.70711728    -0.86750
O805        O  0.64108438  0.49351924  0.97954472    -0.86480
O806        O  0.00727963  0.42821623  0.92347826    -0.86130
O807        O  0.85900150  0.47825083  0.65245924    -0.86530
O808        O  0.94253658  0.12848597  0.55762768    -0.86830
O809        O  0.01075731  0.06972854  0.92334295    -0.88170
Zr810      Zr  0.94654470  0.01108067  0.64624157     2.83100
Zr811      Zr  0.55375504  0.46092552  0.98469498     2.83500
Zr812      Zr  0.57900317  0.03885070  0.58823691     2.84090
Zr813      Zr  0.91892968  0.43523023  0.54157914     2.83360
Zr814      Zr  0.97556459  0.06614644  0.51078926     2.84220
O815        O  0.97496104  0.48799320  0.48645074    -1.08740
O816        O  0.00080703  0.06441640  0.58968364    -1.08240
C817        C  0.92671228  0.13139126  0.60300127     1.06420
C818        C  0.53995440  0.04819216  0.89366881     1.09040
C819        C  0.53724332  0.06294195  0.70806012     1.06590
C820        C  0.82882504  0.45080086  0.63116164     1.06950
C821        C  0.96205424  0.41329833  0.92141454     1.06540
C822        C  0.67036073  0.02236676  0.50029043     1.06090
C823        C  0.56227775  0.15570506  0.52457608     1.06510
C824        C  0.85667364  0.02631813  0.98769173     1.06030
H825        H  0.57757508  0.06247687  0.98619132     0.32700
O826        O  0.55480240  0.04024504  0.50904226    -1.29840
H827        H  0.88956993  0.02617128  0.57140359     0.32730
O828        O  0.92122311  0.01368158  0.56824944    -1.31220
C829        C  0.53075027  0.19575440  0.80645822    -0.00330
C830        C  0.55616258  0.24180780  0.79358162    -0.12200
C831        C  0.53336775  0.28307948  0.80424931     0.01910
C832        C  0.98474286  0.27769158  0.82840386    -0.00410
C833        C  0.95957767  0.23166171  0.84173520    -0.12140
C834        C  0.98206534  0.19047144  0.83058825     0.01790
H835        H  0.59352584  0.24537151  0.77542107     0.14770
H836        H  0.92200773  0.22811817  0.85937368     0.14770
C837        C  0.95420520  0.14324897  0.84370567     0.36430
C838        C  0.55998917  0.33058367  0.78904010     0.36330
N839        N  0.93180332  0.10552977  0.85436116    -0.43920
N840        N  0.58111610  0.36863751  0.77650403    -0.43910
C841        C  0.76582017  0.01759243  0.85047218    -0.00330
C842        C  0.74107288  0.04069690  0.81449369    -0.12200
C843        C  0.72335318  0.01467795  0.77853366     0.01910
C844        C  0.73038819  0.46454275  0.77862627    -0.00410
C845        C  0.75466335  0.44136892  0.81490924    -0.12140
C846        C  0.77290854  0.46746145  0.85043836     0.01790
H847        H  0.73411859  0.07868155  0.81572618     0.14770
H848        H  0.76150186  0.40333159  0.81380334     0.14770
C849        C  0.79722457  0.44132010  0.88729706     0.36430
C850        C  0.70009440  0.04087115  0.74087224     0.36330
N851        N  0.81687111  0.42027976  0.91655555    -0.43920
N852        N  0.68146335  0.06196729  0.71081797    -0.43910
C853        C  0.70952104  0.24229786  0.53312655    -0.00330
C854        C  0.75582145  0.25700138  0.50780818    -0.12200
C855        C  0.79709669  0.24837414  0.53059620     0.01910
C856        C  0.79141368  0.22456728  0.57921114    -0.00410
C857        C  0.74518052  0.20938786  0.60426218    -0.12140
C858        C  0.70395735  0.21849570  0.58178775     0.01790
H859        H  0.75957050  0.27506957  0.97053317     0.14770
H860        H  0.74140573  0.19188023  0.64176881     0.14770
C861        C  0.65644639  0.20402781  0.60986209     0.36430
C862        C  0.84476216  0.26498308  0.00379857     0.36330
N863        N  0.61858386  0.19229821  0.63258181    -0.43920
N864        N  0.88283090  0.27865979  0.98237549    -0.43910
C865        C  0.59541874  0.79482129  0.51448148     0.02960
C866        C  0.64616563  0.79400485  0.01087004    -0.13190
C867        C  0.66655317  0.74981452  0.00863018     0.00460
C868        C  0.63811998  0.70776441  0.00227340    -0.11720
C869        C  0.58744363  0.70565999  0.51179887     0.02950
C870        C  0.56524772  0.74977538  0.51709991    -0.11140
H871        H  0.66909696  0.82638480  0.01653258     0.08540
H872        H  0.65560924  0.67408800  0.00029749     0.06070
H873        H  0.52585206  0.74879906  0.52569773     0.05920
C874        C  0.90520314  0.67707255  0.11290999     0.02960
C875        C  0.85540572  0.67664120  0.10808506    -0.13190
C876        C  0.83363633  0.72011115  0.10548685     0.00460
C877        C  0.85871277  0.76324375  0.11398730    -0.11720
C878        C  0.90931012  0.76663865  0.11343220     0.02950
C879        C  0.93328800  0.72288189  0.11361213    -0.11140
H880        H  0.83500086  0.64347498  0.10039115     0.08540
H881        H  0.83968661  0.79612332  0.11252272     0.06070
H882        H  0.97286849  0.72468630  0.11123135     0.05920
C883        C  0.68765367  0.93689560  0.16064625     0.02960
C884        C  0.68509657  0.93801474  0.21143649    -0.13190
C885        C  0.72791253  0.94138156  0.23365874     0.00460
C886        C  0.77288578  0.93783139  0.20691336    -0.11720
C887        C  0.77773758  0.94047855  0.15607102     0.02950
C888        C  0.73460638  0.93952675  0.13220641    -0.11140
H889        H  0.65057576  0.94284276  0.23262414     0.08540
H890        H  0.80557841  0.94014349  0.22543039     0.06070
H891        H  0.73754537  0.94363311  0.09245354     0.05920
C892        C  0.81100079  0.53804718  0.46788487     0.02960
C893        C  0.81268326  0.54263298  0.41678234    -0.13190
C894        C  0.76922174  0.54047510  0.39548312     0.00460
C895        C  0.72462009  0.54168501  0.42391813    -0.11720
C896        C  0.72091873  0.53440351  0.47479186     0.02950
C897        C  0.76454806  0.53280425  0.99750698    -0.11140
H898        H  0.84698585  0.54004935  0.39410999     0.08540
H899        H  0.69136149  0.54048878  0.40623217     0.06070
H900        H  0.76238825  0.52500500  0.03704886     0.05920
C901        C  0.54924567  0.58178508  0.25396273     0.02960
C902        C  0.55263640  0.63246109  0.25425401    -0.13190
C903        C  0.55561861  0.65255520  0.29824483     0.00460
C904        C  0.56267782  0.62364853  0.34037550    -0.11720
C905        C  0.55292764  0.57321928  0.34318919     0.02950
C906        C  0.54716792  0.55143259  0.29937146    -0.11140
H907        H  0.54634142  0.65567647  0.22183396     0.08540
H908        H  0.56505690  0.64081763  0.37392490     0.06070
H909        H  0.53855213  0.51225285  0.30091153     0.05920
C910        C  0.95200938  0.89203199  0.37617564     0.02960
C911        C  0.95064018  0.92036405  0.33012824    -0.13190
C912        C  0.95011674  0.89661619  0.28662852     0.00460
C913        C  0.94896806  0.84595694  0.29058425    -0.11720
C914        C  0.95827114  0.82034274  0.33368664     0.02950
C915        C  0.95696160  0.84210403  0.37696204    -0.11140
H916        H  0.95318039  0.95990437  0.32785592     0.08540
H917        H  0.94977836  0.82714269  0.25778237     0.06070
H918        H  0.96553506  0.82144180  0.41002356     0.05920
O919        O  0.58016569  0.87725812  0.99167388    -0.86660
O920        O  0.94024032  0.96071774  0.22443575    -0.86830
O921        O  0.60694268  0.91239999  0.14240477    -0.88500
O922        O  0.97292233  0.82788404  0.12361726    -0.87250
O923        O  0.91306129  0.84813513  0.07584031    -0.86840
O924        O  0.64023078  0.99215054  0.12246840    -0.88210
O925        O  0.98834046  0.89984904  0.20484785    -0.86690
O926        O  0.55941760  0.84306712  0.07174803    -0.86280
Zr927      Zr  0.52328224  0.90510964  0.11739719     2.84280
O928        O  0.94450068  0.93236936  0.12032737    -1.08250
O929        O  0.57808649  0.95988019  0.06282748    -1.08980
C930        C  0.57629162  0.84111092  0.02640630     1.06450
C931        C  0.96035013  0.92140015  0.23561382     1.06390
C932        C  0.64247538  0.94714896  0.13904501     1.09370
C933        C  0.93409189  0.81720419  0.10353495     1.07150
H934        H  0.53695073  0.97977548  0.17443229     0.32710
O935        O  0.52508153  0.98305672  0.14281185    -1.29210
H936        H  0.99349867  0.87654279  0.02702578     0.32380
O937        O  0.99672250  0.90813405  0.03896137    -1.30880
O938        O  0.92313617  0.59588373  0.13836213    -0.86660
O939        O  0.56082461  0.50971409  0.40597091    -0.88150
O940        O  0.57176782  0.56621832  0.17131707    -0.86730
O941        O  0.84068836  0.93053632  0.09209590    -0.86780
O942        O  0.92680414  0.91080716  0.45734645    -0.86490
O943        O  0.65762760  0.54378873  0.03838821    -0.86300
O944        O  0.52433531  0.64389071  0.00369341    -0.86670
O945        O  0.89289743  0.56039106  0.48360367    -0.86130
O946        O  0.58320132  0.62590679  0.05358495    -0.87200
O947        O  0.85806064  0.98141931  0.00531915    -0.86350
O948        O  0.99213653  0.54656320  0.20711727    -0.86750
O949        O  0.64108433  0.99351924  0.47954472    -0.86480
O950        O  0.00727958  0.92821624  0.42347826    -0.86130
O951        O  0.85900153  0.97825082  0.15245924    -0.86530
O952        O  0.94253662  0.62848595  0.05762767    -0.86830
O953        O  0.01075728  0.56972855  0.42334295    -0.88170
Zr954      Zr  0.94654473  0.51108066  0.14624157     2.83100
Zr955      Zr  0.55375500  0.96092553  0.48469498     2.83500
Zr956      Zr  0.57900320  0.53885069  0.08823691     2.84090
Zr957      Zr  0.91892971  0.93523023  0.04157913     2.83360
Zr958      Zr  0.97556463  0.56614642  0.01078925     2.84220
O959        O  0.97496107  0.98799319  0.98645074    -1.08740
O960        O  0.00080707  0.56441639  0.08968364    -1.08240
C961        C  0.92671232  0.63139125  0.10300125     1.06420
C962        C  0.53995437  0.54819218  0.39366882     1.09040
C963        C  0.53724334  0.56294195  0.20806012     1.06590
C964        C  0.82882506  0.95080085  0.13116163     1.06950
C965        C  0.96205420  0.91329833  0.42141454     1.06540
C966        C  0.67036077  0.52236675  0.00029043     1.06090
C967        C  0.56227776  0.65570505  0.02457607     1.06510
C968        C  0.85667361  0.52631813  0.48769174     1.06030
H969        H  0.57757505  0.56247688  0.48619132     0.32700
O970        O  0.55480244  0.54024503  0.00904226    -1.29840
H971        H  0.88956996  0.52617128  0.07140358     0.32730
O972        O  0.92122314  0.51368157  0.06824943    -1.31220
C973        C  0.53075024  0.69575441  0.30645820    -0.00330
C974        C  0.55616255  0.74180781  0.29358164    -0.12200
C975        C  0.53336772  0.78307949  0.30424935     0.01910
C976        C  0.98474282  0.77769158  0.32840388    -0.00410
C977        C  0.95957762  0.73166170  0.34173517    -0.12140
C978        C  0.98206530  0.69047143  0.33058820     0.01790
H979        H  0.59352582  0.74537153  0.27542112     0.14770
H980        H  0.92200767  0.72811815  0.35937363     0.14770
C981        C  0.95420517  0.64324897  0.34370560     0.36430
C982        C  0.55998914  0.83058368  0.28904018     0.36330
N983        N  0.93180329  0.60552976  0.35436106    -0.43920
N984        N  0.58111608  0.86863752  0.27650414    -0.43910
C985        C  0.76582016  0.51759240  0.35047219    -0.00330
C986        C  0.74107289  0.54069688  0.31449368    -0.12200
C987        C  0.72335321  0.51467793  0.27853364     0.01910
C988        C  0.73038821  0.96454269  0.27862626    -0.00410
C989        C  0.75466334  0.94136885  0.31490925    -0.12140
C990        C  0.77290851  0.96746138  0.35043838     0.01790
H991        H  0.73411860  0.57868153  0.31572616     0.14770
H992        H  0.76150184  0.90333152  0.31380336     0.14770
C993        C  0.79722450  0.94132003  0.38729711     0.36430
C994        C  0.70009446  0.54087114  0.24087220     0.36330
N995        N  0.81687101  0.92027969  0.41655563    -0.43920
N996        N  0.68146343  0.56196728  0.21081792    -0.43910
C997        C  0.70952108  0.74229784  0.03312638    -0.00330
C998        C  0.75582148  0.75700134  0.00780799    -0.12200
C999        C  0.79709673  0.74837410  0.03059599     0.01910
C1000       C  0.79141373  0.72456724  0.07921093    -0.00410
C1001       C  0.74518058  0.70938782  0.10426199    -0.12140
C1002       C  0.70395741  0.71849567  0.08178758     0.01790
H1003       H  0.75957048  0.77506960  0.47053331     0.14770
H1004       H  0.74140581  0.69188019  0.14176861     0.14770
C1005       C  0.65644645  0.70402779  0.10986195     0.36430
C1006       C  0.84476213  0.76498310  0.50379873     0.36330
N1007       N  0.61858393  0.69229821  0.13258170    -0.43920
N1008       N  0.88283087  0.77865980  0.48237566    -0.43910
C1009       C  0.59541877  0.79482127  0.01448147     0.02960
C1010       C  0.64616560  0.79400487  0.51087011    -0.13190
C1011       C  0.66655314  0.74981453  0.50863029     0.00460
C1012       C  0.63811997  0.70776442  0.50227349    -0.11720
C1013       C  0.58744364  0.70565998  0.01179885     0.02950
C1014       C  0.56524775  0.74977536  0.01709993    -0.11140
H1015       H  0.66909692  0.82638481  0.51653267     0.08540
H1016       H  0.65560924  0.67408802  0.50029760     0.06070
H1017       H  0.52585209  0.74879905  0.02569779     0.05920
C1018       C  0.90520311  0.67707257  0.61291002     0.02960
C1019       C  0.85540568  0.67664121  0.60808516    -0.13190
C1020       C  0.83363628  0.72011116  0.60548699     0.00460
C1021       C  0.85871274  0.76324376  0.61398743    -0.11720
C1022       C  0.90931010  0.76663866  0.61343225     0.02950
C1023       C  0.93328798  0.72288190  0.61361214    -0.11140
H1024       H  0.83500080  0.64347500  0.60039127     0.08540
H1025       H  0.83968659  0.79612333  0.61252288     0.06070
H1026       H  0.97286847  0.72468631  0.61123130     0.05920
C1027       C  0.68765364  0.93689563  0.66064626     0.02960
C1028       C  0.68509654  0.93801479  0.71143650    -0.13190
C1029       C  0.72791251  0.94138161  0.73365875     0.00460
C1030       C  0.77288575  0.93783143  0.70691337    -0.11720
C1031       C  0.77773755  0.94047857  0.65607103     0.02950
C1032       C  0.73460635  0.93952676  0.63220642    -0.11140
H1033       H  0.65057573  0.94284282  0.73262414     0.08540
H1034       H  0.80557839  0.94014353  0.72543040     0.06070
H1035       H  0.73754534  0.94363311  0.59245355     0.05920
C1036       C  0.81100082  0.53804718  0.96788486     0.02960
C1037       C  0.81268329  0.54263300  0.91678234    -0.13190
C1038       C  0.76922176  0.54047513  0.89548312     0.00460
C1039       C  0.72462012  0.54168504  0.92391814    -0.11720
C1040       C  0.72091876  0.53440352  0.97479187     0.02950
C1041       C  0.76454803  0.53280426  0.49750698    -0.11140
H1042       H  0.84698587  0.54004937  0.89410998     0.08540
H1043       H  0.69136151  0.54048882  0.90623218     0.06070
H1044       H  0.76238821  0.52500501  0.53704886     0.05920
C1045       C  0.54924566  0.58178507  0.75396273     0.02960
C1046       C  0.55263637  0.63246108  0.75425401    -0.13190
C1047       C  0.55561860  0.65255519  0.79824484     0.00460
C1048       C  0.56267783  0.62364852  0.84037550    -0.11720
C1049       C  0.55292766  0.57321927  0.84318919     0.02950
C1050       C  0.54716793  0.55143258  0.79937145    -0.11140
H1051       H  0.54634138  0.65567646  0.72183397     0.08540
H1052       H  0.56505691  0.64081762  0.87392490     0.06070
H1053       H  0.53855214  0.51225284  0.80091153     0.05920
C1054       C  0.95200941  0.89203199  0.87617563     0.02960
C1055       C  0.95064019  0.92036406  0.83012824    -0.13190
C1056       C  0.95011674  0.89661620  0.78662852     0.00460
C1057       C  0.94896807  0.84595695  0.79058425    -0.11720
C1058       C  0.95827117  0.82034275  0.83368663     0.02950
C1059       C  0.95696165  0.84210403  0.87696203    -0.11140
H1060       H  0.95318039  0.95990438  0.82785592     0.08540
H1061       H  0.94977836  0.82714270  0.75778236     0.06070
H1062       H  0.96553513  0.82144181  0.91002354     0.05920
O1063       O  0.58016565  0.87725813  0.49167388    -0.86660
O1064       O  0.94024030  0.96071774  0.72443576    -0.86830
O1065       O  0.60694265  0.91240000  0.64240478    -0.88500
O1066       O  0.97292231  0.82788405  0.62361727    -0.87250
O1067       O  0.91306125  0.84813513  0.57584033    -0.86840
O1068       O  0.64023075  0.99215056  0.62246841    -0.88210
O1069       O  0.98834045  0.89984905  0.70484785    -0.86690
O1070       O  0.55941757  0.84306713  0.57174803    -0.86280
Zr1071     Zr  0.52328222  0.90510965  0.61739719     2.84280
O1072       O  0.94450065  0.93236937  0.62032738    -1.08250
O1073       O  0.57808646  0.95988021  0.56282747    -1.08980
C1074       C  0.57629159  0.84111093  0.52640630     1.06450
C1075       C  0.96035011  0.92140016  0.73561382     1.06390
C1076       C  0.64247535  0.94714898  0.63904502     1.09370
C1077       C  0.93409187  0.81720420  0.60353497     1.07150
H1078       H  0.53695070  0.97977549  0.67443229     0.32710
O1079       O  0.52508151  0.98305673  0.64281185    -1.29210
H1080       H  0.99349864  0.87654280  0.52702578     0.32380
O1081       O  0.99672246  0.90813405  0.53896137    -1.30880
O1082       O  0.92313614  0.59588374  0.63836214    -0.86660
O1083       O  0.56082464  0.50971408  0.90597091    -0.88150
O1084       O  0.57176779  0.56621832  0.67131706    -0.86730
O1085       O  0.84068833  0.93053633  0.59209591    -0.86780
O1086       O  0.92680417  0.91080717  0.95734644    -0.86490
O1087       O  0.65762757  0.54378873  0.53838820    -0.86300
O1088       O  0.52433529  0.64389073  0.50369341    -0.86670
O1089       O  0.89289747  0.56039105  0.98360366    -0.86130
O1090       O  0.58320129  0.62590680  0.55358496    -0.87200
O1091       O  0.85806061  0.98141931  0.50531916    -0.86350
O1092       O  0.99213651  0.54656320  0.70711728    -0.86750
O1093       O  0.64108437  0.99351923  0.97954472    -0.86480
O1094       O  0.00727962  0.92821623  0.92347826    -0.86130
O1095       O  0.85900150  0.97825083  0.65245924    -0.86530
O1096       O  0.94253658  0.62848596  0.55762768    -0.86830
O1097       O  0.01075732  0.56972854  0.92334295    -0.88170
Zr1098     Zr  0.94654471  0.51108067  0.64624157     2.83100
Zr1099     Zr  0.55375504  0.96092551  0.98469498     2.83500
Zr1100     Zr  0.57900317  0.53885070  0.58823691     2.84090
Zr1101     Zr  0.91892968  0.93523024  0.54157914     2.83360
Zr1102     Zr  0.97556459  0.56614643  0.51078926     2.84220
O1103       O  0.97496103  0.98799320  0.48645074    -1.08740
O1104       O  0.00080704  0.56441640  0.58968364    -1.08240
C1105       C  0.92671228  0.63139125  0.60300126     1.06420
C1106       C  0.53995440  0.54819217  0.89366881     1.09040
C1107       C  0.53724332  0.56294195  0.70806012     1.06590
C1108       C  0.82882503  0.95080086  0.63116164     1.06950
C1109       C  0.96205423  0.91329833  0.92141454     1.06540
C1110       C  0.67036073  0.52236675  0.50029042     1.06090
C1111       C  0.56227774  0.65570506  0.52457607     1.06510
C1112       C  0.85667364  0.52631813  0.98769173     1.06030
H1113       H  0.57757508  0.56247687  0.98619132     0.32700
O1114       O  0.55480240  0.54024504  0.50904226    -1.29840
H1115       H  0.88956993  0.52617128  0.57140359     0.32730
O1116       O  0.92122311  0.51368157  0.56824944    -1.31220
C1117       C  0.53075023  0.69575440  0.80645821    -0.00330
C1118       C  0.55616253  0.74180780  0.79358160    -0.12200
C1119       C  0.53336771  0.78307948  0.80424929     0.01910
C1120       C  0.98474285  0.77769159  0.82840386    -0.00410
C1121       C  0.95957766  0.73166171  0.84173521    -0.12140
C1122       C  0.98206533  0.69047144  0.83058826     0.01790
H1123       H  0.59352579  0.74537152  0.77542104     0.14770
H1124       H  0.92200773  0.72811817  0.85937371     0.14770
C1125       C  0.95420520  0.64324897  0.84370570     0.36430
C1126       C  0.55998911  0.83058368  0.78904007     0.36330
N1127       N  0.93180333  0.60552977  0.85436120    -0.43920
N1128       N  0.58111605  0.86863751  0.77650399    -0.43910
C1129       C  0.76582017  0.51759244  0.85047219    -0.00330
C1130       C  0.74107288  0.54069691  0.81449370    -0.12200
C1131       C  0.72335318  0.51467796  0.77853366     0.01910
C1132       C  0.73038819  0.96454273  0.77862627    -0.00410
C1133       C  0.75466335  0.94136890  0.81490924    -0.12140
C1134       C  0.77290854  0.96746144  0.85043836     0.01790
H1135       H  0.73411858  0.57868156  0.81572619     0.14770
H1136       H  0.76150186  0.90333158  0.81380334     0.14770
C1137       C  0.79722457  0.94132009  0.88729706     0.36430
C1138       C  0.70009440  0.54087117  0.74087224     0.36330
N1139       N  0.81687111  0.92027975  0.91655555    -0.43920
N1140       N  0.68146334  0.56196730  0.71081798    -0.43910
C1141       C  0.70952104  0.74229787  0.53312651    -0.00330
C1142       C  0.75582144  0.75700138  0.50780813    -0.12200
C1143       C  0.79709669  0.74837414  0.53059614     0.01910
C1144       C  0.79141368  0.72456727  0.57921108    -0.00410
C1145       C  0.74518052  0.70938785  0.60426213    -0.12140
C1146       C  0.70395736  0.71849570  0.58178771     0.01790
H1147       H  0.75957050  0.77506957  0.97053317     0.14770
H1148       H  0.74140575  0.69188022  0.64176875     0.14770
C1149       C  0.65644639  0.70402781  0.60986205     0.36430
C1150       C  0.84476216  0.76498307  0.00379858     0.36330
N1151       N  0.61858387  0.69229822  0.63258178    -0.43920
N1152       N  0.88283091  0.77865978  0.98237550    -0.43910
loop_ 
_geom_bond_atom_site_label_1 
_geom_bond_atom_site_label_2 
_geom_bond_distance 
_geom_bond_site_symmetry_2 
_ccdc_geom_bond_type 
C1            C6   1.427       .  A
C1          C146   1.394       .  A
C1          C210   1.477       .  S
C2            C3   1.390       .  A
C2          C145   1.394       .  A
C2            H7   1.085       .  S
C3            C4   1.382       .  A
C3          C133   1.449       .  S
C4          C149   1.388       .  A
C4            H8   1.087       .  S
C5            C6   1.422       .  A
C5          C148   1.388       .  A
C5          C247   1.480       .  S
C6            H9   1.083       .  S
C10          C11   1.394       .  A
C10          C15   1.429       .  A
C10          C97   1.476       .  S
C11          C12   1.386       .  A
C11          H16   1.086       .  S
C12          C13   1.380       .  A
C12         C136   1.447       .  S
C13          C14   1.389       .  A
C13          H17   1.086       .  S
C14          C15   1.426       .  A
C14          C69   1.486       .  S
C15          H18   1.083       .  S
C19          C20   1.397       .  A
C19          C24   1.427       .  A
C19          C68   1.477       .  S
C20          C21   1.392       .  A
C20          H25   1.084       .  S
C21          C22   1.385       .  A
C21         C124   1.457       .  S
C22          C23   1.386       .  A
C22          H26   1.086       .  S
C23          C24   1.423       .  A
C23         C100   1.486       .  S
C24          H27   1.083       .  S
C28          C29   1.396       .  A
C28         C177   1.426       .  A
C28         C104   1.477       .  S
C29          C30   1.393       .  A
C29          H34   1.085       .  S
C30          C31   1.386       .  A
C30         C121   1.457       .  S
C31          C32   1.387       .  A
C31          H35   1.086       .  S
C32         C177   1.420       .  A
C32         C246   1.483       .  S
C33         C172   1.426       .  A
C33         C176   1.420       .  A
C33          H36   1.083   1_556  S
C37          C38   1.395       .  A
C37          C42   1.426       .  A
C37          C99   1.477       .  S
C38          C39   1.391       .  A
C38          H43   1.085       .  S
C39          C40   1.383       .  A
C39         C109   1.450       .  S
C40          C41   1.388       .  A
C40          H44   1.087       .  S
C41          C42   1.421       .  A
C41          C98   1.480       .  S
C42          H45   1.083       .  S
C46          C47   1.427       .  A
C46          C51   1.395       .  A
C46         C101   1.475       .  S
C47          C48   1.425       .  A
C47          H52   1.083       .  S
C48          C49   1.389       .  A
C48          C67   1.485       .  S
C49          C50   1.381       .  A
C49          H53   1.086       .  S
C50          C51   1.387       .  A
C50         C112   1.449       .  S
C51          H54   1.085       .  S
O55          C66   1.299   1_556  A
O55        Zr235   2.477       .  S
O56          C67   1.286       .  A
O56        Zr378   2.423       .  S
O57          C68   1.300       .  A
O57         Zr63   2.480       .  S
O58          C69   1.286       .  A
O58        Zr639   2.423       .  S
O59          C69   1.304       .  A
O59         Zr93   2.477       .  S
O60          C68   1.289       .  A
O60        Zr380   2.428       .  S
O61          C67   1.304       .  A
O61        Zr639   2.476       .  S
O62          C66   1.291       .  A
O62         Zr63   2.440       .  S
Zr63        O634   2.423   1_455  S
Zr63        O637   2.476   1_455  S
Zr63         O65   2.337       .  S
Zr63         O71   2.328       .  S
Zr63        O640   2.355   1_455  S
Zr63        O649   2.356   1_455  S
O64         Zr93   2.353       .  S
O64        Zr639   2.355       .  S
O64        Zr378   2.354       .  S
O65        Zr235   2.325   1_554  S
O65        Zr380   2.356       .  S
C66         C145   1.477       .  S
H70          O71   0.964       .  S
O71        Zr954   2.357   1_455  S
O71        Zr380   2.340       .  S
H72          O73   0.964       .  S
O73         Zr93   2.328       .  S
O73        Zr639   2.356       .  S
O73        Zr811   2.337   1_554  S
O74          C97   1.299       .  A
O74         Zr90   2.477       .  S
O75          C98   1.285       .  A
O75        Zr379   2.413   1_545  S
O76          C99   1.299       .  A
O76         Zr92   2.475       .  S
O77         C100   1.285       .  A
O77         Zr93   2.417       .  S
O78         C101   1.298       .  A
O78        Zr237   2.473       .  S
O79         C102   1.286       .  A
O79         Zr92   2.417       .  S
O80         C103   1.285       .  A
O80        Zr670   2.412   1_455  S
O81         C104   1.299       .  A
O81        Zr238   2.478       .  S
O82         C103   1.305       .  A
O82         Zr92   2.483       .  S
O83         C536   1.290   1_554  A
O83         Zr93   2.436       .  S
O84         C675   1.291       .  A
O84         Zr90   2.441       .  S
O85         C534   1.304       .  A
O85         Zr91   2.482       .  S
O86         C101   1.289       .  A
O86        Zr667   2.431       .  S
O87         C100   1.306       .  A
O87        Zr378   2.486       .  S
O88          C97   1.289       .  A
O88         Zr94   2.431       .  S
O89         C674   1.304       .  A
O89        Zr238   2.482       .  S
Zr90        O344   2.423   1_545  S
Zr90        O375   2.486   1_545  S
Zr90         O96   2.337       .  S
Zr90        O108   2.331       .  S
Zr90        O352   2.354   1_545  S
Zr90        O935   2.357   1_545  S
Zr91        O199   2.477       .  S
Zr91        O363   2.413       .  S
Zr91        O662   2.431       .  S
Zr91        O209   2.325       .  S
Zr91        O793   2.337   1_455  S
Zr91        O815   2.355   1_455  S
Zr91        O538   2.354       .  S
Zr92        O348   2.428   1_545  S
Zr92        O106   2.352       .  S
Zr92        O353   2.356   1_545  S
Zr92        O359   2.340   1_545  S
Zr92        O672   2.324       .  S
Zr93        O222   2.473   1_554  S
Zr93         O95   2.334   1_554  S
Zr93        O396   2.355       .  S
Zr94        O656   2.412       .  S
Zr94        O225   2.478   1_554  S
Zr94        O233   2.482   1_554  S
Zr94         O96   2.355       .  S
Zr94        O108   2.339       .  S
Zr94        O383   2.323   1_544  S
Zr94        O682   2.354       .  S
O95        Zr811   2.355       .  S
O95        Zr382   2.323   1_556  S
O96        Zr668   2.324       .  S
C98         O665   1.304       .  A
C99         O660   1.291   1_455  A
C102        C176   1.483   1_554  S
C102        O517   1.304   1_544  A
C103        C149   1.480       .  S
C104        O515   1.290   1_545  A
H105        O250   0.966       .  S
O106       Zr523   2.354   1_544  S
O106       Zr670   2.354   1_455  S
O106        H249   0.966   1_554  S
H107        O108   0.964       .  S
O108       Zr381   2.355   1_545  S
C109        C110   1.390       .  A
C109        C690   1.418   1_455  A
C110        C111   1.389       .  A
C110        H115   1.085       .  S
C111        C688   1.416   1_455  A
C111        C118   1.445       .  S
C112        C113   1.389       .  A
C112        C687   1.416       .  A
C113        C114   1.386       .  A
C113        H116   1.085       .  S
C114        C685   1.418       .  A
C114        C117   1.446       .  S
C117        N119   1.157       .  T
C118        N120   1.157       .  T
C121        C122   1.399       .  A
C121        C414   1.414   1_545  A
C122        C123   1.390       .  A
C122        H127   1.085       .  S
C123        C412   1.414   1_545  A
C123        C130   1.446       .  S
C124        C125   1.398       .  A
C124        C411   1.414       .  A
C125        C126   1.387       .  A
C125        H128   1.086       .  S
C126        C409   1.414       .  A
C126        C129   1.446       .  S
C129        N131   1.157       .  T
C130        N132   1.157       .  T
C133        C134   1.390       .  A
C133        C138   1.418       .  A
C134        C135   1.388       .  A
C134        H283   1.085   1_554  S
C135        C136   1.417       .  A
C135        C286   1.446       .  S
C136        C137   1.388       .  A
C137        C138   1.385       .  A
C137        H140   1.085       .  S
C138        C141   1.446       .  S
H139        C278   1.085       .  S
C141        N143   1.157       .  T
C142        C279   1.446       .  S
C142        N144   1.157       .  T
C145        C150   1.427       .  A
C146        C147   1.390       .  A
C146        H151   1.085       .  S
C147        C148   1.382       .  A
C147        C277   1.449       .  S
C148        H152   1.087       .  S
C149        C150   1.422       .  A
C150        H153   1.083       .  S
C154        C155   1.394       .  A
C154        C159   1.429       .  A
C154        C241   1.476       .  S
C155        C156   1.386       .  A
C155        H160   1.086       .  S
C156        C157   1.380       .  A
C156        C280   1.447       .  S
C157        C158   1.389       .  A
C157        H161   1.086       .  S
C158        C159   1.426       .  A
C158        C213   1.486       .  S
C159        H162   1.083       .  S
C163        C164   1.397       .  A
C163        C168   1.427       .  A
C163        C212   1.477       .  S
C164        C165   1.392       .  A
C164        H169   1.084       .  S
C165        C166   1.385       .  A
C165        C268   1.457       .  S
C166        C167   1.386       .  A
C166        H170   1.086       .  S
C167        C168   1.423       .  A
C167        C244   1.486       .  S
C168        H171   1.083       .  S
C172        C173   1.396       .  A
C172        C248   1.477       .  S
C173        C174   1.393       .  A
C173        H178   1.085       .  S
C174        C175   1.386       .  A
C174        C265   1.457       .  S
C175        C176   1.387       .  A
C175        H179   1.086       .  S
C177        H180   1.083       .  S
C181        C182   1.395       .  A
C181        C186   1.426       .  A
C181        C243   1.477       .  S
C182        C183   1.391       .  A
C182        H187   1.085       .  S
C183        C184   1.383       .  A
C183        C253   1.450       .  S
C184        C185   1.388       .  A
C184        H188   1.087       .  S
C185        C186   1.421       .  A
C185        C242   1.480       .  S
C186        H189   1.083       .  S
C190        C191   1.427       .  A
C190        C195   1.395       .  A
C190        C245   1.475       .  S
C191        C192   1.425       .  A
C191        H196   1.083       .  S
C192        C193   1.389       .  A
C192        C211   1.485       .  S
C193        C194   1.381       .  A
C193        H197   1.086       .  S
C194        C195   1.387       .  A
C194        C256   1.449       .  S
C195        H198   1.085       .  S
O199        C210   1.299       .  A
O200        C211   1.286       .  A
O200       Zr522   2.423       .  S
O201        C212   1.300       .  A
O201       Zr207   2.480       .  S
O202        C213   1.286       .  A
O202       Zr783   2.423       .  S
O203        C213   1.304       .  A
O203       Zr237   2.477       .  S
O204        C212   1.289       .  A
O204       Zr524   2.428       .  S
O205        C211   1.304       .  A
O205       Zr783   2.476       .  S
O206        C210   1.291       .  A
O206       Zr207   2.440       .  S
Zr207       O778   2.423   1_455  S
Zr207       O781   2.476   1_455  S
Zr207       O784   2.355   1_455  S
Zr207       O209   2.337       .  S
Zr207       O793   2.356   1_455  S
Zr207       O215   2.328       .  S
O208       Zr783   2.355       .  S
O208       Zr522   2.354       .  S
O208       Zr237   2.353       .  S
O209       Zr524   2.356       .  S
H214        O215   0.964       .  S
O215      Zr1098   2.357   1_455  S
O215       Zr524   2.340       .  S
H216        O217   0.964       .  S
O217       Zr783   2.356       .  S
O217       Zr667   2.337       .  S
O217       Zr237   2.328       .  S
O218        C241   1.299       .  A
O218       Zr234   2.477       .  S
O219        C242   1.285       .  A
O219       Zr523   2.413   1_545  S
O220        C243   1.299       .  A
O220       Zr236   2.475       .  S
O221        C244   1.285       .  A
O221       Zr237   2.417       .  S
O222        C245   1.298       .  A
O223        C246   1.286       .  A
O223       Zr236   2.417       .  S
O224        C247   1.285       .  A
O224       Zr814   2.412   1_455  S
O225        C248   1.299       .  A
O226        C247   1.305       .  A
O226       Zr236   2.483       .  S
O227        C392   1.290       .  A
O227       Zr237   2.436       .  S
O228        C819   1.291       .  A
O228       Zr234   2.441       .  S
O229        C390   1.304   1_556  A
O229       Zr235   2.482       .  S
O230        C245   1.289       .  A
O230       Zr811   2.431       .  S
O231        C244   1.306       .  A
O231       Zr522   2.486       .  S
O232        C241   1.289       .  A
O232       Zr238   2.431       .  S
O233        C818   1.304       .  A
Zr234       O488   2.423   1_545  S
Zr234       O519   2.486   1_545  S
Zr234       O496   2.354   1_545  S
Zr234      O1079   2.357   1_545  S
Zr234       O240   2.337       .  S
Zr234       O252   2.331       .  S
Zr235       O507   2.413       .  S
Zr235       O806   2.431       .  S
Zr235       O649   2.337   1_456  S
Zr235       O671   2.355   1_455  S
Zr235       O394   2.354   1_556  S
Zr236       O492   2.428   1_545  S
Zr236       O497   2.356   1_545  S
Zr236       O503   2.340   1_545  S
Zr236       O816   2.324       .  S
Zr236       O250   2.352       .  S
Zr237       O239   2.334       .  S
Zr237       O540   2.355       .  S
Zr238       O800   2.412       .  S
Zr238       O527   2.323   1_545  S
Zr238       O240   2.355       .  S
Zr238       O252   2.339       .  S
Zr238       O826   2.354       .  S
O239       Zr667   2.355       .  S
O239       Zr526   2.323       .  S
O240       Zr812   2.324       .  S
C242        O809   1.304       .  A
C243        O804   1.291   1_455  A
C246        O373   1.304   1_545  A
C248        O371   1.290   1_546  A
O250       Zr379   2.354   1_545  S
O250       Zr814   2.354   1_455  S
H251        O252   0.964       .  S
O252       Zr525   2.355   1_545  S
C253        C254   1.390       .  A
C253        C834   1.418   1_455  A
C254        C255   1.389       .  A
C254        H259   1.085       .  S
C255        C832   1.416   1_455  A
C255        C262   1.445       .  S
C256        C831   1.416       .  A
C256        C257   1.389       .  A
C257        C258   1.386       .  A
C257        H260   1.085       .  S
C258        C829   1.418       .  A
C258        C261   1.446       .  S
C261        N263   1.157       .  T
C262        N264   1.157       .  T
C265        C266   1.399       .  A
C265        C558   1.414   1_545  A
C266        C267   1.390       .  A
C266        H271   1.085       .  S
C267        C556   1.414   1_545  A
C267        C274   1.446       .  S
C268        C555   1.414       .  A
C268        C269   1.398       .  A
C269        C270   1.387       .  A
C269        H272   1.086       .  S
C270        C553   1.414       .  A
C270        C273   1.446       .  S
C273        N275   1.157       .  T
C274        N276   1.157       .  T
C277        C278   1.390       .  A
C277        C282   1.418       .  A
C278        C279   1.388       .  A
C279        C280   1.417       .  A
C280        C281   1.388       .  A
C281        C282   1.385       .  A
C281        H284   1.085       .  S
C282        C285   1.446       .  S
C285        N287   1.157       .  T
C286        N288   1.157   1_554  T
C289        C434   1.394       .  A
C289        C294   1.427       .  A
C289        C498   1.477       .  S
C290        C433   1.394       .  A
C290        C291   1.390       .  A
C290        H295   1.085       .  S
C291        C292   1.382       .  A
C291        C421   1.449       .  S
C292        C437   1.388       .  A
C292        H296   1.087       .  S
C293        C436   1.388       .  A
C293        C294   1.422       .  A
C293        C535   1.480       .  S
C294        H297   1.083       .  S
C298        C299   1.394       .  A
C298        C303   1.429       .  A
C298        C385   1.476       .  S
C299        C300   1.386       .  A
C299        H304   1.086       .  S
C300        C301   1.380       .  A
C300        C424   1.447       .  S
C301        C302   1.389       .  A
C301        H305   1.086       .  S
C302        C303   1.426       .  A
C302        C357   1.486       .  S
C303        H306   1.083       .  S
C307        C308   1.397       .  A
C307        C312   1.427       .  A
C307        C356   1.477       .  S
C308        C309   1.392       .  A
C308        H313   1.084       .  S
C309        C310   1.385       .  A
C309        C412   1.457       .  S
C310        C311   1.386       .  A
C310        H314   1.086       .  S
C311        C312   1.423       .  A
C311        C388   1.486       .  S
C312        H315   1.083       .  S
C316        C317   1.396       .  A
C316        C465   1.426       .  A
C316        C392   1.477       .  S
C317        C318   1.393       .  A
C317        H322   1.085       .  S
C318        C319   1.386       .  A
C318        C409   1.457       .  S
C319        C320   1.387       .  A
C319        H323   1.086       .  S
C320        C465   1.420       .  A
C320        C534   1.483       .  S
C321        C460   1.426       .  A
C321        C464   1.420       .  A
C321        H324   1.083   1_556  S
C325        C326   1.395       .  A
C325        C330   1.426       .  A
C325        C387   1.477       .  S
C326        C327   1.391       .  A
C326        H331   1.085       .  S
C327        C328   1.383       .  A
C327        C397   1.450       .  S
C328        C329   1.388       .  A
C328        H332   1.087       .  S
C329        C330   1.421       .  A
C329        C386   1.480       .  S
C330        H333   1.083       .  S
C334        C335   1.427       .  A
C334        C339   1.395       .  A
C334        C389   1.475       .  S
C335        C336   1.425       .  A
C335        H340   1.083       .  S
C336        C337   1.389       .  A
C336        C355   1.485       .  S
C337        C338   1.381       .  A
C337        H341   1.086       .  S
C338        C339   1.387       .  A
C338        C400   1.449       .  S
C339        H342   1.085       .  S
O343        C354   1.299   1_556  A
O343       Zr523   2.477       .  S
O344        C355   1.286       .  A
O345        C356   1.300       .  A
O345       Zr351   2.480       .  S
O346        C357   1.286       .  A
O346       Zr927   2.423       .  S
O347        C357   1.304       .  A
O347       Zr381   2.477       .  S
O348        C356   1.289       .  A
O349        C355   1.304       .  A
O349       Zr927   2.476       .  S
O350        C354   1.291       .  A
O350       Zr351   2.440       .  S
Zr351       O922   2.423   1_455  S
Zr351       O925   2.476   1_455  S
Zr351       O928   2.355   1_455  S
Zr351       O353   2.337       .  S
Zr351       O937   2.356   1_455  S
Zr351       O359   2.328       .  S
O352       Zr927   2.355       .  S
O352       Zr381   2.353       .  S
O353       Zr523   2.325   1_554  S
C354        C433   1.477       .  S
H358        O359   0.964       .  S
O359       Zr666   2.357   1_465  S
H360        O361   0.964       .  S
O361       Zr927   2.356       .  S
O361      Zr1099   2.337   1_554  S
O361       Zr381   2.328       .  S
O362        C385   1.299       .  A
O362       Zr378   2.477       .  S
O363        C386   1.285       .  A
O364        C387   1.299       .  A
O364       Zr380   2.475       .  S
O365        C388   1.285       .  A
O365       Zr381   2.417       .  S
O366        C389   1.298       .  A
O366       Zr525   2.473       .  S
O367        C390   1.286       .  A
O367       Zr380   2.417       .  S
O368        C391   1.285       .  A
O368       Zr958   2.412   1_455  S
O369        C392   1.299       .  A
O369       Zr526   2.478       .  S
O370        C391   1.305       .  A
O370       Zr380   2.483       .  S
O371       Zr381   2.436       .  S
O372        C963   1.291       .  A
O372       Zr378   2.441       .  S
O373       Zr379   2.482       .  S
O374        C389   1.289       .  A
O374       Zr955   2.431       .  S
O375        C388   1.306       .  A
O376        C385   1.289       .  A
O376       Zr382   2.431       .  S
O377        C962   1.304       .  A
O377       Zr526   2.482       .  S
Zr378       O647   2.357       .  S
Zr378       O384   2.337       .  S
Zr378       O396   2.331       .  S
Zr379       O487   2.477       .  S
Zr379       O950   2.431       .  S
Zr379       O497   2.325       .  S
Zr379      O1081   2.337   1_455  S
Zr379      O1103   2.355   1_455  S
Zr380       O960   2.324       .  S
Zr380       O394   2.352       .  S
Zr381       O510   2.473   1_554  S
Zr381       O383   2.334   1_554  S
Zr382       O944   2.412       .  S
Zr382       O513   2.478   1_554  S
Zr382       O521   2.482   1_554  S
Zr382       O384   2.355       .  S
Zr382       O396   2.339       .  S
Zr382       O970   2.354       .  S
O383      Zr1099   2.355       .  S
O384       Zr956   2.324       .  S
C386        O953   1.304       .  A
C387        O948   1.291   1_455  A
C390        C464   1.483   1_554  S
C391        C437   1.480       .  S
H393        O538   0.966       .  S
O394       Zr958   2.354   1_455  S
O394        H537   0.966   1_554  S
H395        O396   0.964       .  S
C397        C398   1.390       .  A
C397        C978   1.418   1_455  A
C398        C399   1.389       .  A
C398        H403   1.085       .  S
C399        C976   1.416   1_455  A
C399        C406   1.445       .  S
C400        C975   1.416       .  A
C400        C401   1.389       .  A
C401        C402   1.386       .  A
C401        H404   1.085       .  S
C402        C973   1.418       .  A
C402        C405   1.446       .  S
C405        N407   1.157       .  T
C406        N408   1.157       .  T
C409        C410   1.399       .  A
C410        C411   1.390       .  A
C410        H415   1.085       .  S
C411        C418   1.446       .  S
C412        C413   1.398       .  A
C413        C414   1.387       .  A
C413        H416   1.086       .  S
C414        C417   1.446       .  S
C417        N419   1.157       .  T
C418        N420   1.157       .  T
C421        C422   1.390       .  A
C421        C426   1.418       .  A
C422        C423   1.388       .  A
C422        H571   1.085   1_554  S
C423        C424   1.417       .  A
C423        C574   1.446       .  S
C424        C425   1.388       .  A
C425        C426   1.385       .  A
C425        H428   1.085       .  S
C426        C429   1.446       .  S
H427        C566   1.085       .  S
C429        N431   1.157       .  T
C430        C567   1.446       .  S
C430        N432   1.157       .  T
C433        C438   1.427       .  A
C434        C435   1.390       .  A
C434        H439   1.085       .  S
C435        C436   1.382       .  A
C435        C565   1.449       .  S
C436        H440   1.087       .  S
C437        C438   1.422       .  A
C438        H441   1.083       .  S
C442        C443   1.394       .  A
C442        C447   1.429       .  A
C442        C529   1.476       .  S
C443        C444   1.386       .  A
C443        H448   1.086       .  S
C444        C445   1.380       .  A
C444        C568   1.447       .  S
C445        C446   1.389       .  A
C445        H449   1.086       .  S
C446        C447   1.426       .  A
C446        C501   1.486       .  S
C447        H450   1.083       .  S
C451        C452   1.397       .  A
C451        C456   1.427       .  A
C451        C500   1.477       .  S
C452        C453   1.392       .  A
C452        H457   1.084       .  S
C453        C454   1.385       .  A
C453        C556   1.457       .  S
C454        C455   1.386       .  A
C454        H458   1.086       .  S
C455        C456   1.423       .  A
C455        C532   1.486       .  S
C456        H459   1.083       .  S
C460        C461   1.396       .  A
C460        C536   1.477       .  S
C461        C462   1.393       .  A
C461        H466   1.085       .  S
C462        C463   1.386       .  A
C462        C553   1.457       .  S
C463        C464   1.387       .  A
C463        H467   1.086       .  S
C465        H468   1.083       .  S
C469        C470   1.395       .  A
C469        C474   1.426       .  A
C469        C531   1.477       .  S
C470        C471   1.391       .  A
C470        H475   1.085       .  S
C471        C472   1.383       .  A
C471        C541   1.450       .  S
C472        C473   1.388       .  A
C472        H476   1.087       .  S
C473        C474   1.421       .  A
C473        C530   1.480       .  S
C474        H477   1.083       .  S
C478        C479   1.427       .  A
C478        C483   1.395       .  A
C478        C533   1.475       .  S
C479        C480   1.425       .  A
C479        H484   1.083       .  S
C480        C481   1.389       .  A
C480        C499   1.485       .  S
C481        C482   1.381       .  A
C481        H485   1.086       .  S
C482        C483   1.387       .  A
C482        C544   1.449       .  S
C483        H486   1.085       .  S
O487        C498   1.299       .  A
O488        C499   1.286       .  A
O489        C500   1.300       .  A
O489       Zr495   2.480       .  S
O490        C501   1.286       .  A
O490      Zr1071   2.423       .  S
O491        C501   1.304       .  A
O491       Zr525   2.477       .  S
O492        C500   1.289       .  A
O493        C499   1.304       .  A
O493      Zr1071   2.476       .  S
O494        C498   1.291       .  A
O494       Zr495   2.440       .  S
Zr495      O1066   2.423   1_455  S
Zr495      O1069   2.476   1_455  S
Zr495      O1072   2.355   1_455  S
Zr495       O497   2.337       .  S
Zr495      O1081   2.356   1_455  S
Zr495       O503   2.328       .  S
O496      Zr1071   2.355       .  S
O496       Zr525   2.353       .  S
H502        O503   0.964       .  S
O503       Zr810   2.357   1_465  S
H504        O505   0.964       .  S
O505      Zr1071   2.356       .  S
O505       Zr955   2.337       .  S
O505       Zr525   2.328       .  S
O506        C529   1.299       .  A
O506       Zr522   2.477       .  S
O507        C530   1.285       .  A
O508        C531   1.299       .  A
O508       Zr524   2.475       .  S
O509        C532   1.285       .  A
O509       Zr525   2.417       .  S
O510        C533   1.298       .  A
O511        C534   1.286       .  A
O511       Zr524   2.417       .  S
O512        C535   1.285       .  A
O512      Zr1102   2.412   1_455  S
O513        C536   1.299       .  A
O514        C535   1.305       .  A
O514       Zr524   2.483       .  S
O515       Zr525   2.436       .  S
O516       C1107   1.291       .  A
O516       Zr522   2.441       .  S
O517       Zr523   2.482       .  S
O518        C533   1.289       .  A
O518      Zr1099   2.431       .  S
O519        C532   1.306       .  A
O520        C529   1.289       .  A
O520       Zr526   2.431       .  S
O521       C1106   1.304       .  A
Zr522       O791   2.357       .  S
Zr522       O528   2.337       .  S
Zr522       O540   2.331       .  S
Zr523      O1094   2.431       .  S
Zr523       O937   2.337   1_456  S
Zr523       O959   2.355   1_455  S
Zr524      O1104   2.324       .  S
Zr524       O538   2.352       .  S
Zr525       O527   2.334       .  S
Zr526      O1088   2.412       .  S
Zr526       O528   2.355       .  S
Zr526       O540   2.339       .  S
Zr526      O1114   2.354       .  S
O527       Zr955   2.355       .  S
O528      Zr1100   2.324       .  S
C530       O1097   1.304       .  A
C531       O1092   1.291   1_455  A
O538      Zr1102   2.354   1_455  S
H539        O540   0.964       .  S
C541        C542   1.390       .  A
C541       C1122   1.418   1_455  A
C542        C543   1.389       .  A
C542        H547   1.085       .  S
C543       C1120   1.416   1_455  A
C543        C550   1.445       .  S
C544       C1119   1.416       .  A
C544        C545   1.389       .  A
C545        C546   1.386       .  A
C545        H548   1.085       .  S
C546       C1117   1.418       .  A
C546        C549   1.446       .  S
C549        N551   1.157       .  T
C550        N552   1.157       .  T
C553        C554   1.399       .  A
C554        C555   1.390       .  A
C554        H559   1.085       .  S
C555        C562   1.446       .  S
C556        C557   1.398       .  A
C557        C558   1.387       .  A
C557        H560   1.086       .  S
C558        C561   1.446       .  S
C561        N563   1.157       .  T
C562        N564   1.157       .  T
C565        C566   1.390       .  A
C565        C570   1.418       .  A
C566        C567   1.388       .  A
C567        C568   1.417       .  A
C568        C569   1.388       .  A
C569        C570   1.385       .  A
C569        H572   1.085       .  S
C570        C573   1.446       .  S
C573        N575   1.157       .  T
C574        N576   1.157   1_554  T
C577        C722   1.394       .  A
C577        C582   1.427       .  A
C577        C786   1.477       .  S
C578        C721   1.394       .  A
C578        C579   1.390       .  A
C578        H583   1.085       .  S
C579        C580   1.382       .  A
C579        C709   1.449       .  S
C580        C725   1.388       .  A
C580        H584   1.087       .  S
C581        C724   1.388       .  A
C581        C582   1.422       .  A
C581        C823   1.480       .  S
C582        H585   1.083       .  S
C586        C587   1.394       .  A
C586        C591   1.429       .  A
C586        C673   1.476       .  S
C587        C588   1.386       .  A
C587        H592   1.086       .  S
C588        C589   1.380       .  A
C588        C712   1.447       .  S
C589        C590   1.389       .  A
C589        H593   1.086       .  S
C590        C591   1.426       .  A
C590        C645   1.486       .  S
C591        H594   1.083       .  S
C595        C596   1.397       .  A
C595        C600   1.427       .  A
C595        C644   1.477       .  S
C596        C597   1.392       .  A
C596        H601   1.084       .  S
C597        C598   1.385       .  A
C597        C700   1.457       .  S
C598        C599   1.386       .  A
C598        H602   1.086       .  S
C599        C600   1.423       .  A
C599        C676   1.486       .  S
C600        H603   1.083       .  S
C604        C605   1.396       .  A
C604        C753   1.426       .  A
C604        C680   1.477       .  S
C605        C606   1.393       .  A
C605        H610   1.085       .  S
C606        C607   1.386       .  A
C606        C697   1.457       .  S
C607        C608   1.387       .  A
C607        H611   1.086       .  S
C608        C753   1.420       .  A
C608        C822   1.483       .  S
C609        C748   1.426       .  A
C609        C752   1.420       .  A
C609        H612   1.083   1_556  S
C613        C614   1.395       .  A
C613        C618   1.426       .  A
C613        C675   1.477       .  S
C614        C615   1.391       .  A
C614        H619   1.085       .  S
C615        C616   1.383       .  A
C615        C685   1.450       .  S
C616        C617   1.388       .  A
C616        H620   1.087       .  S
C617        C618   1.421       .  A
C617        C674   1.480       .  S
C618        H621   1.083       .  S
C622        C623   1.427       .  A
C622        C627   1.395       .  A
C622        C677   1.475       .  S
C623        C624   1.425       .  A
C623        H628   1.083       .  S
C624        C625   1.389       .  A
C624        C643   1.485       .  S
C625        C626   1.381       .  A
C625        H629   1.086       .  S
C626        C627   1.387       .  A
C626        C688   1.449       .  S
C627        H630   1.085       .  S
O631        C642   1.299   1_556  A
O631       Zr811   2.477       .  S
O632        C643   1.286       .  A
O632       Zr954   2.423       .  S
O633        C644   1.300       .  A
O633       Zr639   2.480       .  S
O634        C645   1.286       .  A
O635        C645   1.304       .  A
O635       Zr669   2.477       .  S
O636        C644   1.289       .  A
O636       Zr956   2.428       .  S
O637        C643   1.304       .  A
O638        C642   1.291       .  A
O638       Zr639   2.440       .  S
Zr639       O641   2.337       .  S
Zr639       O647   2.328       .  S
O640       Zr954   2.354       .  S
O640       Zr669   2.353       .  S
O641       Zr811   2.325   1_554  S
O641       Zr956   2.356       .  S
C642        C721   1.477       .  S
H646        O647   0.964       .  S
O647       Zr956   2.340       .  S
H648        O649   0.964       .  S
O649       Zr669   2.328       .  S
O650        C673   1.299       .  A
O650       Zr666   2.477       .  S
O651        C674   1.285       .  A
O651       Zr955   2.413   1_545  S
O652        C675   1.299       .  A
O652       Zr668   2.475       .  S
O653        C676   1.285       .  A
O653       Zr669   2.417       .  S
O654        C677   1.298       .  A
O654       Zr813   2.473       .  S
O655        C678   1.286       .  A
O655       Zr668   2.417       .  S
O656        C679   1.285       .  A
O657        C680   1.299       .  A
O657       Zr814   2.478       .  S
O658        C679   1.305       .  A
O658       Zr668   2.483       .  S
O659       C1112   1.290   1_554  A
O659       Zr669   2.436       .  S
O660       Zr666   2.441       .  S
O661       C1110   1.304       .  A
O661       Zr667   2.482       .  S
O662        C677   1.289   1_455  A
O663        C676   1.306       .  A
O663       Zr954   2.486       .  S
O664        C673   1.289       .  A
O664       Zr670   2.431       .  S
O665       Zr814   2.482   1_455  S
Zr666       O920   2.423   1_545  S
Zr666       O951   2.486   1_545  S
Zr666       O928   2.354   1_545  S
Zr666       O672   2.337   1_655  S
Zr666       O684   2.331       .  S
Zr667       O775   2.477       .  S
Zr667       O939   2.413       .  S
Zr667       O785   2.325       .  S
Zr667      O1114   2.354       .  S
Zr668       O924   2.428   1_545  S
Zr668       O929   2.356   1_545  S
Zr668       O935   2.340   1_545  S
Zr668       O682   2.352       .  S
Zr669       O798   2.473   1_554  S
Zr669       O671   2.334   1_554  S
Zr669       O972   2.355       .  S
Zr670       O801   2.478   1_554  S
Zr670       O809   2.482   1_654  S
Zr670       O959   2.323   1_544  S
Zr670       O672   2.355   1_655  S
Zr670       O684   2.339       .  S
O671       Zr958   2.323   1_556  S
C678        C752   1.483   1_554  S
C678       O1093   1.304   1_544  A
C679        C725   1.480       .  S
C680       O1091   1.290   1_545  A
H681        O826   0.966       .  S
O682      Zr1099   2.354   1_544  S
O682        H825   0.966   1_554  S
H683        O684   0.964       .  S
O684       Zr957   2.355   1_545  S
C685        C686   1.390       .  A
C686        C687   1.389       .  A
C686        H691   1.085       .  S
C687        C694   1.445       .  S
C688        C689   1.389       .  A
C689        C690   1.386       .  A
C689        H692   1.085       .  S
C690        C693   1.446       .  S
C693        N695   1.157       .  T
C694        N696   1.157       .  T
C697        C698   1.399       .  A
C697        C990   1.414   1_545  A
C698        C699   1.390       .  A
C698        H703   1.085       .  S
C699        C988   1.414   1_545  A
C699        C706   1.446       .  S
C700        C987   1.414       .  A
C700        C701   1.398       .  A
C701        C702   1.387       .  A
C701        H704   1.086       .  S
C702        C985   1.414       .  A
C702        C705   1.446       .  S
C705        N707   1.157       .  T
C706        N708   1.157       .  T
C709        C710   1.390       .  A
C709        C714   1.418       .  A
C710        C711   1.388       .  A
C710        H859   1.085   1_554  S
C711        C712   1.417       .  A
C711        C862   1.446       .  S
C712        C713   1.388       .  A
C713        C714   1.385       .  A
C713        H716   1.085       .  S
C714        C717   1.446       .  S
H715        C854   1.085       .  S
C717        N719   1.157       .  T
C718        C855   1.446       .  S
C718        N720   1.157       .  T
C721        C726   1.427       .  A
C722        C723   1.390       .  A
C722        H727   1.085       .  S
C723        C724   1.382       .  A
C723        C853   1.449       .  S
C724        H728   1.087       .  S
C725        C726   1.422       .  A
C726        H729   1.083       .  S
C730        C731   1.394       .  A
C730        C735   1.429       .  A
C730        C817   1.476       .  S
C731        C732   1.386       .  A
C731        H736   1.086       .  S
C732        C733   1.380       .  A
C732        C856   1.447       .  S
C733        C734   1.389       .  A
C733        H737   1.086       .  S
C734        C735   1.426       .  A
C734        C789   1.486       .  S
C735        H738   1.083       .  S
C739        C740   1.397       .  A
C739        C744   1.427       .  A
C739        C788   1.477       .  S
C740        C741   1.392       .  A
C740        H745   1.084       .  S
C741        C742   1.385       .  A
C741        C844   1.457       .  S
C742        C743   1.386       .  A
C742        H746   1.086       .  S
C743        C744   1.423       .  A
C743        C820   1.486       .  S
C744        H747   1.083       .  S
C748        C749   1.396       .  A
C748        C824   1.477       .  S
C749        C750   1.393       .  A
C749        H754   1.085       .  S
C750        C751   1.386       .  A
C750        C841   1.457       .  S
C751        C752   1.387       .  A
C751        H755   1.086       .  S
C753        H756   1.083       .  S
C757        C758   1.395       .  A
C757        C762   1.426       .  A
C757        C819   1.477       .  S
C758        C759   1.391       .  A
C758        H763   1.085       .  S
C759        C760   1.383       .  A
C759        C829   1.450       .  S
C760        C761   1.388       .  A
C760        H764   1.087       .  S
C761        C762   1.421       .  A
C761        C818   1.480       .  S
C762        H765   1.083       .  S
C766        C767   1.427       .  A
C766        C771   1.395       .  A
C766        C821   1.475       .  S
C767        C768   1.425       .  A
C767        H772   1.083       .  S
C768        C769   1.389       .  A
C768        C787   1.485       .  S
C769        C770   1.381       .  A
C769        H773   1.086       .  S
C770        C771   1.387       .  A
C770        C832   1.449       .  S
C771        H774   1.085       .  S
O775        C786   1.299       .  A
O776        C787   1.286       .  A
O776      Zr1098   2.423       .  S
O777        C788   1.300       .  A
O777       Zr783   2.480       .  S
O778        C789   1.286       .  A
O779        C789   1.304       .  A
O779       Zr813   2.477       .  S
O780        C788   1.289       .  A
O780      Zr1100   2.428       .  S
O781        C787   1.304       .  A
O782        C786   1.291       .  A
O782       Zr783   2.440       .  S
Zr783       O785   2.337       .  S
Zr783       O791   2.328       .  S
O784      Zr1098   2.354       .  S
O784       Zr813   2.353       .  S
O785      Zr1100   2.356       .  S
H790        O791   0.964       .  S
O791      Zr1100   2.340       .  S
H792        O793   0.964       .  S
O793       Zr813   2.328       .  S
O794        C817   1.299       .  A
O794       Zr810   2.477       .  S
O795        C818   1.285       .  A
O795      Zr1099   2.413   1_545  S
O796        C819   1.299       .  A
O796       Zr812   2.475       .  S
O797        C820   1.285       .  A
O797       Zr813   2.417       .  S
O798        C821   1.298       .  A
O799        C822   1.286       .  A
O799       Zr812   2.417       .  S
O800        C823   1.285       .  A
O801        C824   1.299       .  A
O802        C823   1.305       .  A
O802       Zr812   2.483       .  S
O803        C968   1.290       .  A
O803       Zr813   2.436       .  S
O804       Zr810   2.441       .  S
O805        C966   1.304   1_556  A
O805       Zr811   2.482       .  S
O806        C821   1.289   1_455  A
O807        C820   1.306       .  A
O807      Zr1098   2.486       .  S
O808        C817   1.289       .  A
O808       Zr814   2.431       .  S
Zr810      O1064   2.423   1_545  S
Zr810      O1095   2.486   1_545  S
Zr810      O1072   2.354   1_545  S
Zr810       O816   2.337   1_655  S
Zr810       O828   2.331       .  S
Zr811      O1083   2.413       .  S
Zr811       O970   2.354   1_556  S
Zr812      O1068   2.428   1_545  S
Zr812      O1073   2.356   1_545  S
Zr812      O1079   2.340   1_545  S
Zr812       O826   2.352       .  S
Zr813       O815   2.334       .  S
Zr813      O1116   2.355       .  S
Zr814      O1103   2.323   1_545  S
Zr814       O816   2.355   1_655  S
Zr814       O828   2.339       .  S
O815      Zr1102   2.323       .  S
C822        O949   1.304   1_545  A
C824        O947   1.290   1_546  A
O826       Zr955   2.354   1_545  S
H827        O828   0.964       .  S
O828      Zr1101   2.355   1_545  S
C829        C830   1.390       .  A
C830        C831   1.389       .  A
C830        H835   1.085       .  S
C831        C838   1.445       .  S
C832        C833   1.389       .  A
C833        C834   1.386       .  A
C833        H836   1.085       .  S
C834        C837   1.446       .  S
C837        N839   1.157       .  T
C838        N840   1.157       .  T
C841        C842   1.399       .  A
C841       C1134   1.414   1_545  A
C842        C843   1.390       .  A
C842        H847   1.085       .  S
C843       C1132   1.414   1_545  A
C843        C850   1.446       .  S
C844       C1131   1.414       .  A
C844        C845   1.398       .  A
C845        C846   1.387       .  A
C845        H848   1.086       .  S
C846       C1129   1.414       .  A
C846        C849   1.446       .  S
C849        N851   1.157       .  T
C850        N852   1.157       .  T
C853        C854   1.390       .  A
C853        C858   1.418       .  A
C854        C855   1.388       .  A
C855        C856   1.417       .  A
C856        C857   1.388       .  A
C857        C858   1.385       .  A
C857        H860   1.085       .  S
C858        C861   1.446       .  S
C861        N863   1.157       .  T
C862        N864   1.157   1_554  T
C865       C1010   1.394       .  A
C865        C870   1.427       .  A
C865       C1074   1.477       .  S
C866       C1009   1.394       .  A
C866        C867   1.390       .  A
C866        H871   1.085       .  S
C867        C868   1.382       .  A
C867        C997   1.449       .  S
C868       C1013   1.388       .  A
C868        H872   1.087       .  S
C869       C1012   1.388       .  A
C869        C870   1.422       .  A
C869       C1111   1.480       .  S
C870        H873   1.083       .  S
C874        C875   1.394       .  A
C874        C879   1.429       .  A
C874        C961   1.476       .  S
C875        C876   1.386       .  A
C875        H880   1.086       .  S
C876        C877   1.380       .  A
C876       C1000   1.447       .  S
C877        C878   1.389       .  A
C877        H881   1.086       .  S
C878        C879   1.426       .  A
C878        C933   1.486       .  S
C879        H882   1.083       .  S
C883        C884   1.397       .  A
C883        C888   1.427       .  A
C883        C932   1.477       .  S
C884        C885   1.392       .  A
C884        H889   1.084       .  S
C885        C886   1.385       .  A
C885        C988   1.457       .  S
C886        C887   1.386       .  A
C886        H890   1.086       .  S
C887        C888   1.423       .  A
C887        C964   1.486       .  S
C888        H891   1.083       .  S
C892        C893   1.396       .  A
C892       C1041   1.426       .  A
C892        C968   1.477       .  S
C893        C894   1.393       .  A
C893        H898   1.085       .  S
C894        C895   1.386       .  A
C894        C985   1.457       .  S
C895        C896   1.387       .  A
C895        H899   1.086       .  S
C896       C1041   1.420       .  A
C896       C1110   1.483       .  S
C897       C1036   1.426       .  A
C897       C1040   1.420       .  A
C897        H900   1.083   1_556  S
C901        C902   1.395       .  A
C901        C906   1.426       .  A
C901        C963   1.477       .  S
C902        C903   1.391       .  A
C902        H907   1.085       .  S
C903        C904   1.383       .  A
C903        C973   1.450       .  S
C904        C905   1.388       .  A
C904        H908   1.087       .  S
C905        C906   1.421       .  A
C905        C962   1.480       .  S
C906        H909   1.083       .  S
C910        C911   1.427       .  A
C910        C915   1.395       .  A
C910        C965   1.475       .  S
C911        C912   1.425       .  A
C911        H916   1.083       .  S
C912        C913   1.389       .  A
C912        C931   1.485       .  S
C913        C914   1.381       .  A
C913        H917   1.086       .  S
C914        C915   1.387       .  A
C914        C976   1.449       .  S
C915        H918   1.085       .  S
O919        C930   1.299   1_556  A
O919      Zr1099   2.477       .  S
O920        C931   1.286       .  A
O921        C932   1.300       .  A
O921       Zr927   2.480       .  S
O922        C933   1.286       .  A
O923        C933   1.304       .  A
O923       Zr957   2.477       .  S
O924        C932   1.289       .  A
O925        C931   1.304       .  A
O926        C930   1.291       .  A
O926       Zr927   2.440       .  S
Zr927       O929   2.337       .  S
Zr927       O935   2.328       .  S
O928       Zr957   2.353       .  S
O929      Zr1099   2.325   1_554  S
C930       C1009   1.477       .  S
H934        O935   0.964       .  S
H936        O937   0.964       .  S
O937       Zr957   2.328       .  S
O938        C961   1.299       .  A
O938       Zr954   2.477       .  S
O939        C962   1.285       .  A
O940        C963   1.299       .  A
O940       Zr956   2.475       .  S
O941        C964   1.285       .  A
O941       Zr957   2.417       .  S
O942        C965   1.298       .  A
O942      Zr1101   2.473       .  S
O943        C966   1.286       .  A
O943       Zr956   2.417       .  S
O944        C967   1.285       .  A
O945        C968   1.299       .  A
O945      Zr1102   2.478       .  S
O946        C967   1.305       .  A
O946       Zr956   2.483       .  S
O947       Zr957   2.436       .  S
O948       Zr954   2.441       .  S
O949       Zr955   2.482       .  S
O950        C965   1.289   1_455  A
O951        C964   1.306       .  A
O952        C961   1.289       .  A
O952       Zr958   2.431       .  S
O953      Zr1102   2.482   1_455  S
Zr954       O960   2.337   1_655  S
Zr954       O972   2.331       .  S
Zr955      O1063   2.477       .  S
Zr955      O1073   2.325       .  S
Zr956       O970   2.352       .  S
Zr957      O1086   2.473   1_554  S
Zr957       O959   2.334   1_554  S
Zr958      O1089   2.478   1_554  S
Zr958      O1097   2.482   1_654  S
Zr958       O960   2.355   1_655  S
Zr958       O972   2.339       .  S
C966       C1040   1.483   1_554  S
C967       C1013   1.480       .  S
H969       O1114   0.966       .  S
O970       H1113   0.966   1_554  S
H971        O972   0.964       .  S
C973        C974   1.390       .  A
C974        C975   1.389       .  A
C974        H979   1.085       .  S
C975        C982   1.445       .  S
C976        C977   1.389       .  A
C977        C978   1.386       .  A
C977        H980   1.085       .  S
C978        C981   1.446       .  S
C981        N983   1.157       .  T
C982        N984   1.157       .  T
C985        C986   1.399       .  A
C986        C987   1.390       .  A
C986        H991   1.085       .  S
C987        C994   1.446       .  S
C988        C989   1.398       .  A
C989        C990   1.387       .  A
C989        H992   1.086       .  S
C990        C993   1.446       .  S
C993        N995   1.157       .  T
C994        N996   1.157       .  T
C997        C998   1.390       .  A
C997       C1002   1.418       .  A
C998        C999   1.388       .  A
C998       H1147   1.085   1_554  S
C999       C1000   1.417       .  A
C999       C1150   1.446       .  S
C1000      C1001   1.388       .  A
C1001      C1002   1.385       .  A
C1001      H1004   1.085       .  S
C1002      C1005   1.446       .  S
H1003      C1142   1.085       .  S
C1005      N1007   1.157       .  T
C1006      C1143   1.446       .  S
C1006      N1008   1.157       .  T
C1009      C1014   1.427       .  A
C1010      C1011   1.390       .  A
C1010      H1015   1.085       .  S
C1011      C1012   1.382       .  A
C1011      C1141   1.449       .  S
C1012      H1016   1.087       .  S
C1013      C1014   1.422       .  A
C1014      H1017   1.083       .  S
C1018      C1019   1.394       .  A
C1018      C1023   1.429       .  A
C1018      C1105   1.476       .  S
C1019      C1020   1.386       .  A
C1019      H1024   1.086       .  S
C1020      C1021   1.380       .  A
C1020      C1144   1.447       .  S
C1021      C1022   1.389       .  A
C1021      H1025   1.086       .  S
C1022      C1023   1.426       .  A
C1022      C1077   1.486       .  S
C1023      H1026   1.083       .  S
C1027      C1028   1.397       .  A
C1027      C1032   1.427       .  A
C1027      C1076   1.477       .  S
C1028      C1029   1.392       .  A
C1028      H1033   1.084       .  S
C1029      C1030   1.385       .  A
C1029      C1132   1.457       .  S
C1030      C1031   1.386       .  A
C1030      H1034   1.086       .  S
C1031      C1032   1.423       .  A
C1031      C1108   1.486       .  S
C1032      H1035   1.083       .  S
C1036      C1037   1.396       .  A
C1036      C1112   1.477       .  S
C1037      C1038   1.393       .  A
C1037      H1042   1.085       .  S
C1038      C1039   1.386       .  A
C1038      C1129   1.457       .  S
C1039      C1040   1.387       .  A
C1039      H1043   1.086       .  S
C1041      H1044   1.083       .  S
C1045      C1046   1.395       .  A
C1045      C1050   1.426       .  A
C1045      C1107   1.477       .  S
C1046      C1047   1.391       .  A
C1046      H1051   1.085       .  S
C1047      C1048   1.383       .  A
C1047      C1117   1.450       .  S
C1048      C1049   1.388       .  A
C1048      H1052   1.087       .  S
C1049      C1050   1.421       .  A
C1049      C1106   1.480       .  S
C1050      H1053   1.083       .  S
C1054      C1055   1.427       .  A
C1054      C1059   1.395       .  A
C1054      C1109   1.475       .  S
C1055      C1056   1.425       .  A
C1055      H1060   1.083       .  S
C1056      C1057   1.389       .  A
C1056      C1075   1.485       .  S
C1057      C1058   1.381       .  A
C1057      H1061   1.086       .  S
C1058      C1059   1.387       .  A
C1058      C1120   1.449       .  S
C1059      H1062   1.085       .  S
O1063      C1074   1.299       .  A
O1064      C1075   1.286       .  A
O1065      C1076   1.300       .  A
O1065     Zr1071   2.480       .  S
O1066      C1077   1.286       .  A
O1067      C1077   1.304       .  A
O1067     Zr1101   2.477       .  S
O1068      C1076   1.289       .  A
O1069      C1075   1.304       .  A
O1070      C1074   1.291       .  A
O1070     Zr1071   2.440       .  S
Zr1071     O1073   2.337       .  S
Zr1071     O1079   2.328       .  S
O1072     Zr1101   2.353       .  S
H1078      O1079   0.964       .  S
H1080      O1081   0.964       .  S
O1081     Zr1101   2.328       .  S
O1082      C1105   1.299       .  A
O1082     Zr1098   2.477       .  S
O1083      C1106   1.285       .  A
O1084      C1107   1.299       .  A
O1084     Zr1100   2.475       .  S
O1085      C1108   1.285       .  A
O1085     Zr1101   2.417       .  S
O1086      C1109   1.298       .  A
O1087      C1110   1.286       .  A
O1087     Zr1100   2.417       .  S
O1088      C1111   1.285       .  A
O1089      C1112   1.299       .  A
O1090      C1111   1.305       .  A
O1090     Zr1100   2.483       .  S
O1091     Zr1101   2.436       .  S
O1092     Zr1098   2.441       .  S
O1093     Zr1099   2.482       .  S
O1094      C1109   1.289   1_455  A
O1095      C1108   1.306       .  A
O1096      C1105   1.289       .  A
O1096     Zr1102   2.431       .  S
Zr1098     O1104   2.337   1_655  S
Zr1098     O1116   2.331       .  S
Zr1100     O1114   2.352       .  S
Zr1101     O1103   2.334       .  S
Zr1102     O1104   2.355   1_655  S
Zr1102     O1116   2.339       .  S
H1115      O1116   0.964       .  S
C1117      C1118   1.390       .  A
C1118      C1119   1.389       .  A
C1118      H1123   1.085       .  S
C1119      C1126   1.445       .  S
C1120      C1121   1.389       .  A
C1121      C1122   1.386       .  A
C1121      H1124   1.085       .  S
C1122      C1125   1.446       .  S
C1125      N1127   1.157       .  T
C1126      N1128   1.157       .  T
C1129      C1130   1.399       .  A
C1130      C1131   1.390       .  A
C1130      H1135   1.085       .  S
C1131      C1138   1.446       .  S
C1132      C1133   1.398       .  A
C1133      C1134   1.387       .  A
C1133      H1136   1.086       .  S
C1134      C1137   1.446       .  S
C1137      N1139   1.157       .  T
C1138      N1140   1.157       .  T
C1141      C1142   1.390       .  A
C1141      C1146   1.418       .  A
C1142      C1143   1.388       .  A
C1143      C1144   1.417       .  A
C1144      C1145   1.388       .  A
C1145      C1146   1.385       .  A
C1145      H1148   1.085       .  S
C1146      C1149   1.446       .  S
C1149      N1151   1.157       .  T
C1150      N1152   1.157   1_554  T
