geometry optimzed in LAMMPS
_audit_creation_date              2020-12-01 
_audit_creation_method            'lammps2cif' 
_symmetry_space_group_name_H-M    'P1' 
_symmetry_Int_Tables_number       1 
_symmetry_cell_setting            triclinic 
loop_ 
_symmetry_equiv_pos_as_xyz 
  x,y,z 
_cell_length_a                    46.28392378 
_cell_length_b                    46.320143404326316 
_cell_length_c                    74.6107041782787 
_cell_angle_alpha                 90.02367242511838 
_cell_angle_beta                  89.9713305087875 
_cell_angle_gamma                 123.48617016569331 
loop_ 
_atom_site_label 
_atom_site_type_symbol 
_atom_site_fract_x 
_atom_site_fract_y 
_atom_site_fract_z 
_atom_site_charge 
N1          N  0.71230117  0.86734499  0.21446725    -0.27300
N2          N  0.68858056  0.87075928  0.22216523    -0.35200
C3          C  0.66364982  0.86316841  0.21017916     0.01000
C4          C  0.67161996  0.85390358  0.19425238     0.07000
C5          C  0.70253924  0.85665165  0.19742761    -0.06100
H6          H  0.64043221  0.86255481  0.21314971     0.07700
H7          H  0.71679858  0.85118008  0.18807730     0.08900
Cu8        Cu  0.68772203  0.87988110  0.24930588     0.44200
Cu9        Cu  0.75707675  0.87822887  0.22768586     0.42000
Cu10       Cu  0.75774178  0.89045636  0.27586841     0.43900
N11         N  0.68621446  0.87700274  0.27705372    -0.34700
N12         N  0.71092082  0.87858466  0.28678809    -0.29000
C13         C  0.70015187  0.87104404  0.30394012    -0.05100
C14         C  0.66744963  0.86515941  0.30503551     0.07100
C15         C  0.65945080  0.86921016  0.28777400     0.00900
H16         H  0.71488826  0.86966612  0.31476735     0.08600
H17         H  0.63519913  0.86489910  0.28317083     0.07700
N18         N  0.80148903  0.90287520  0.26115485    -0.36200
N19         N  0.80098709  0.89710136  0.24374112    -0.28400
C20         C  0.83341745  0.90864139  0.23830702    -0.03600
C21         C  0.85532810  0.92254672  0.25293420     0.05000
C22         C  0.83431516  0.91877904  0.26714452     0.03100
H23         H  0.84080262  0.90860671  0.22455052     0.08200
H24         H  0.84239614  0.92761676  0.28076046     0.07000
N25         N  0.05855539  0.18063862  0.21696915    -0.27300
N26         N  0.08088107  0.20863813  0.22622262    -0.35200
C27         C  0.09772091  0.23578654  0.21500564     0.01000
C28         C  0.08493611  0.22439232  0.19794089     0.07000
C29         C  0.06006326  0.18938103  0.19961728    -0.06100
H30         H  0.11687149  0.26208911  0.21907990     0.07700
H31         H  0.04438842  0.17157680  0.18902888     0.08900
Cu32       Cu  0.08381234  0.20935366  0.25390460     0.44200
Cu33       Cu  0.02744808  0.13219577  0.22878895     0.42000
Cu34       Cu  0.01357800  0.13320979  0.27665229     0.43900
N35         N  0.07415919  0.20724093  0.28111325    -0.34700
N36         N  0.04697368  0.18074628  0.28922541    -0.29000
C37         C  0.04670762  0.18936638  0.30645986    -0.05100
C38         C  0.07548667  0.22247176  0.30928548     0.07100
C39         C  0.09228523  0.23296372  0.29298822     0.00900
H40         H  0.02745920  0.17255375  0.31627283     0.08600
H41         H  0.11536641  0.25792493  0.28982524     0.07700
N42         N  0.99234764  0.08790687  0.26154308    -0.36200
N43         N  0.99912191  0.08771483  0.24431979    -0.28400
C44         C  0.98464243  0.05476087  0.23891569    -0.03600
C45         C  0.96755273  0.03317701  0.25332636     0.05000
C46         C  0.97271832  0.05495063  0.26742633     0.03100
H47         H  0.98609509  0.04706973  0.22542512     0.08200
H48         H  0.96367958  0.04744786  0.28106306     0.07000
N49         N  0.01146179  0.83460538  0.21172571    -0.27300
N50         N  0.01264440  0.81090920  0.22096835    -0.35200
C51         C  0.02144130  0.79398251  0.20992491     0.01000
C52         C  0.02676957  0.80807331  0.19297141     0.07000
C53         C  0.02040278  0.83390639  0.19458214    -0.06100
H54         H  0.02561805  0.77421396  0.21414807     0.07700
H55         H  0.02233034  0.85103328  0.18410838     0.08900
Cu56       Cu  0.00857276  0.80687333  0.24870843     0.44200
Cu57       Cu  0.99806629  0.86677563  0.22343806     0.42000
Cu58       Cu  0.00643343  0.87416309  0.27208689     0.43900
N59         N  0.01703662  0.81582028  0.27607351    -0.34700
N60         N  0.01892733  0.84200016  0.28444640    -0.29000
C61         C  0.02913921  0.84303822  0.30149491    -0.05100
C62         C  0.03316075  0.81581792  0.30397301     0.07100
C63         C  0.02518188  0.79909361  0.28762821     0.00900
H64         H  0.03318357  0.86206429  0.31135516     0.08600
H65         H  0.02677985  0.77733489  0.28414833     0.07700
N66         N  0.98734519  0.89766281  0.25662458    -0.36200
N67         N  0.98343731  0.89433343  0.23900286    -0.28400
C68         C  0.96806172  0.91042507  0.23341702    -0.03600
C69         C  0.96238366  0.92478113  0.24817755     0.05000
C70         C  0.97487765  0.91618254  0.26263413     0.03100
H71         H  0.96113396  0.91122893  0.21966598     0.08200
H72         H  0.97402736  0.92207836  0.27658183     0.07000
C73         C  0.94475118  0.94324903  0.24877626     0.80200
N74         N  0.90956054  0.92512844  0.24955685    -0.78100
C75         C  0.89338634  0.94179502  0.25278487     0.82600
N76         N  0.91250989  0.97670995  0.25503004    -0.78100
C77         C  0.94754444  0.99513730  0.25337252     0.82700
N78         N  0.96362113  0.97832610  0.25033165    -0.79800
N79         N  0.66586717  0.08282454  0.86994371    -0.27300
N80         N  0.67279498  0.11317427  0.87530249    -0.35200
C81         C  0.64942634  0.10843317  0.88762291     0.01000
C82         C  0.62640478  0.07321072  0.89039848     0.07000
C83         C  0.63754767  0.05773770  0.87876682    -0.06100
H84         H  0.65063788  0.12937024  0.89477832     0.07700
H85         H  0.62733810  0.03043859  0.87767669     0.08900
Cu86       Cu  0.71840078  0.15946020  0.86947521     0.44200
Cu87       Cu  0.69954337  0.07897119  0.85300079     0.42000
Cu88       Cu  0.78983180  0.15405819  0.85593538     0.43900
N89         N  0.76947313  0.19901679  0.87321001    -0.34700
N90         N  0.79595013  0.19633788  0.86987376    -0.29000
C91         C  0.82446020  0.22315609  0.87777555    -0.05100
C92         C  0.81529151  0.24368221  0.88630853     0.07100
C93         C  0.78029019  0.22753924  0.88298695     0.00900
H94         H  0.84955012  0.22659048  0.87797552     0.08600
H95         H  0.76318714  0.23412429  0.88875420     0.07700
N96         N  0.77332261  0.11071912  0.83969180    -0.36200
N97         N  0.74051473  0.08469125  0.83793038    -0.28400
C98         C  0.73826590  0.06358421  0.82478688    -0.03600
C99         C  0.77118754  0.07635148  0.81825834     0.05000
C100        C  0.79277191  0.10625028  0.82798781     0.03100
H101        H  0.71430449  0.04090654  0.82009266     0.08200
H102        H  0.82026694  0.12452659  0.82594596     0.07000
N103        N  0.07697867  0.33340598  0.12332554    -0.27300
N104        N  0.10549719  0.36071466  0.11675851    -0.35200
C105        C  0.09732634  0.37774947  0.10559739     0.01000
C106        C  0.06164718  0.36053541  0.10481318     0.07000
C107        C  0.04947128  0.33250313  0.11642525    -0.06100
H108        H  0.11633902  0.40062163  0.09825537     0.07700
H109        H  0.02272458  0.31234757  0.11914381     0.08900
Cu110      Cu  0.15440377  0.37157927  0.12066077     0.44200
Cu111      Cu  0.08007155  0.29945186  0.14051024     0.42000
Cu112      Cu  0.16992653  0.31660972  0.14452297     0.43900
N113        N  0.20007033  0.37441191  0.11846101    -0.34700
N114        N  0.20628323  0.35326852  0.12674890    -0.29000
C115        C  0.23635891  0.35887440  0.12050726    -0.05100
C116        C  0.24952161  0.38495882  0.10762902     0.07100
C117        C  0.22557042  0.39396453  0.10680707     0.00900
H118        H  0.24705855  0.34421217  0.12456218     0.08600
H119        H  0.22525103  0.41181389  0.09761420     0.07700
N120        N  0.12730289  0.28305885  0.16044589    -0.36200
N121        N  0.09533594  0.27554916  0.15853282    -0.28400
C122        C  0.07504023  0.25237205  0.17120708    -0.03600
C123        C  0.09523735  0.24552359  0.18164188     0.05000
C124        C  0.12814883  0.26554016  0.17458263     0.03100
H125        H  0.04795507  0.24251607  0.17320499     0.08200
H126        H  0.15116772  0.26743891  0.17943239     0.07000
N127        N  0.82408411  0.56612613  0.87348375    -0.27300
N128        N  0.79318595  0.54227921  0.87972069    -0.35200
C129        C  0.79554467  0.52030455  0.89024070     0.01000
C130        C  0.82978332  0.53037802  0.89091232     0.07000
C131        C  0.84728599  0.55975081  0.88002747    -0.06100
H132        H  0.77389877  0.49983830  0.89773809     0.07700
H133        H  0.87487765  0.57602053  0.87760636     0.08900
Cu134      Cu  0.74984621  0.54355537  0.87704818     0.44200
Cu135      Cu  0.83046038  0.60678328  0.85781162     0.42000
Cu136      Cu  0.75656709  0.61882323  0.86161790     0.43900
N137        N  0.71135832  0.55215364  0.88100609    -0.34700
N138        N  0.71358132  0.58059478  0.87598445    -0.29000
C139        C  0.68577625  0.57960485  0.88240570    -0.05100
C140        C  0.66524025  0.54895631  0.89201401     0.07100
C141        C  0.68259668  0.53242577  0.89073387     0.00900
H142        H  0.68149163  0.60013694  0.88065910     0.08600
H143        H  0.67606733  0.50862869  0.89713988     0.07700
N144        N  0.80034804  0.64808618  0.84545102    -0.36200
N145        N  0.82544943  0.64263718  0.84334844    -0.28400
C146        C  0.84640327  0.66307036  0.82999143    -0.03600
C147        C  0.83447401  0.68275869  0.82370145     0.05000
C148        C  0.80537521  0.67269716  0.83382100     0.03100
H149        H  0.86832895  0.66306562  0.82496198     0.08200
H150        H  0.78780846  0.68098905  0.83205421     0.07000
C151        C  0.91672934  0.41502565  0.98806564     0.02200
C152        C  0.91529820  0.44469055  0.98812089     0.02200
C153        C  0.92709046  0.46635998  0.00317943    -0.18300
C154        C  0.94109554  0.45983291  0.01815323     0.02200
C155        C  0.94209535  0.42971670  0.01827261     0.02200
C156        C  0.92989158  0.40783721  0.00314184    -0.18300
H157        H  0.93100981  0.38506385  0.00298124     0.04200
H158        H  0.92607376  0.48920205  0.00305431     0.04200
C159        C  0.46265571  0.48965110  0.01170976     0.02200
C160        C  0.42872564  0.45946242  0.01073598     0.02200
C161        C  0.41831617  0.43875789  0.99526740    -0.18300
C162        C  0.44131703  0.44686385  0.98098015     0.02200
C163        C  0.47546297  0.47647262  0.98218672     0.02200
C164        C  0.48570833  0.49745117  0.99749394    -0.18300
H165        H  0.51163236  0.52072513  0.99806574     0.04200
H166        H  0.39239355  0.41550839  0.99457849     0.04200
N167        N  0.16033074  0.82604636  0.12560057    -0.27300
N168        N  0.16422316  0.80011689  0.12312196    -0.35200
C169        C  0.19376112  0.81145228  0.11417881     0.01000
C170        C  0.20941616  0.84622872  0.11054907     0.07000
C171        C  0.18743292  0.85473113  0.11793307    -0.06100
H172        H  0.20190868  0.79491119  0.10947426     0.07700
H173        H  0.19051070  0.87962549  0.11741193     0.08900
Cu174      Cu  0.12630465  0.74886200  0.12789160     0.44200
Cu175      Cu  0.11704529  0.81911113  0.13898584     0.42000
Cu176      Cu  0.04542709  0.72717139  0.14451240     0.43900
N177        N  0.08163296  0.70067886  0.12405167    -0.34700
N178        N  0.05082833  0.69247771  0.12941279    -0.29000
C179        C  0.02653208  0.66188045  0.12197737    -0.05100
C180        C  0.04302242  0.65048908  0.11127078     0.07100
C181        C  0.07802314  0.67587076  0.11314520     0.00900
H182        H  0.99893745  0.65001084  0.12337195     0.08600
H183        H  0.09946085  0.67755779  0.10627245     0.07700
N184        N  0.04924695  0.76852943  0.15817424    -0.36200
N185        N  0.07369430  0.80164594  0.15550900    -0.28400
C186        C  0.06817541  0.82095732  0.16676928    -0.03600
C187        C  0.03936491  0.79897128  0.17717345     0.05000
C188        C  0.02826442  0.76601426  0.17145501     0.03100
H189        H  0.08525564  0.84875808  0.16815416     0.08200
H190        H  0.00693841  0.74185653  0.17686691     0.07000
N191        N  0.32443945  0.09590088  0.87479159    -0.27300
N192        N  0.35090287  0.12629965  0.88017404    -0.35200
C193        C  0.37071907  0.12167230  0.89136814     0.01000
C194        C  0.35616194  0.08647113  0.89324822     0.07000
C195        C  0.32683075  0.07090739  0.88241095    -0.06100
H196        H  0.39328877  0.14254054  0.89817026     0.07700
H197        H  0.30768370  0.04348400  0.88088356     0.08900
Cu198      Cu  0.35534837  0.17223152  0.87481131     0.44200
Cu199      Cu  0.28535352  0.09160167  0.85873117     0.42000
Cu200      Cu  0.28019037  0.16849692  0.85852005     0.43900
N201        N  0.34910348  0.21283910  0.87680359    -0.34700
N202        N  0.32070153  0.21123431  0.87216746    -0.29000
C203        C  0.32295720  0.23979000  0.87840193    -0.05100
C204        C  0.35447095  0.26029036  0.88723628     0.07100
C205        C  0.37020207  0.24225639  0.88583298     0.00900
H206        H  0.30275566  0.24469782  0.87709874     0.08600
H207        H  0.39407453  0.24864434  0.89215372     0.07700
N208        N  0.24846599  0.12378729  0.84328714    -0.36200
N209        N  0.25126180  0.09681135  0.84293355    -0.28400
C210        C  0.23004757  0.07461328  0.83017261    -0.03600
C211        C  0.21258630  0.08778724  0.82237957     0.05000
C212        C  0.22493541  0.11900328  0.83094423     0.03100
H213        H  0.22824981  0.05108762  0.82646731     0.08200
H214        H  0.21882143  0.13781749  0.82769836     0.07000
N215        N  0.53328164  0.82593897  0.12665960    -0.27300
N216        N  0.51223736  0.79642630  0.11828973    -0.35200
C217        C  0.49098848  0.79963495  0.10754187     0.01000
C218        C  0.49897973  0.83311239  0.10892903     0.07000
C219        C  0.52590178  0.84903175  0.12136141    -0.06100
H220        H  0.47254020  0.77942563  0.09860864     0.07700
H221        H  0.54045148  0.87589247  0.12543576     0.08900
Cu222      Cu  0.51844421  0.75588128  0.11839415     0.44200
Cu223      Cu  0.57303248  0.83225477  0.14298228     0.42000
Cu224      Cu  0.59373907  0.76517160  0.13771868     0.43900
N225        N  0.53425564  0.72331607  0.11269893    -0.34700
N226        N  0.56193272  0.72596056  0.11954063    -0.29000
C227        C  0.56566879  0.70182655  0.11179721    -0.05100
C228        C  0.53934380  0.68389595  0.09927419     0.07100
C229        C  0.52004601  0.69826248  0.10032086     0.00900
H230        H  0.58669737  0.69860837  0.11449096     0.08600
H231        H  0.49755845  0.69147711  0.09240018     0.07700
N232        N  0.61828633  0.80691074  0.15549709    -0.36200
N233        N  0.60993471  0.82982682  0.15783979    -0.28400
C234        C  0.62840797  0.85060157  0.17165937    -0.03600
C235        C  0.64979087  0.84081159  0.17808994     0.05000
C236        C  0.64282569  0.81316726  0.16751570     0.03100
H237        H  0.62597063  0.87096803  0.17686600     0.08200
H238        H  0.65336026  0.79748216  0.16909997     0.07000
C239        C  0.41548051  0.96985711  0.98711006     0.02200
C240        C  0.44544785  0.96892044  0.98856938     0.02200
C241        C  0.45053336  0.95541606  0.00420313    -0.18300
C242        C  0.42660074  0.94264214  0.01842448     0.02200
C243        C  0.39643109  0.94339850  0.01696600     0.02200
C244        C  0.39139781  0.95685063  0.00123874    -0.18300
H245        H  0.36905398  0.95862523  0.00026458     0.04200
H246        H  0.47321695  0.95419326  0.00516405     0.04200
N247        N  0.14991732  0.07719700  0.71554347    -0.27300
N248        N  0.17409361  0.07453056  0.72326738    -0.35200
C249        C  0.19950688  0.08326888  0.71139558     0.01000
C250        C  0.19143564  0.09256527  0.69553343     0.07000
C251        C  0.15990804  0.08860427  0.69859902    -0.06100
H252        H  0.22276069  0.08391919  0.71430251     0.07700
H253        H  0.14499238  0.09290837  0.68910682     0.08900
Cu254      Cu  0.17435481  0.06335876  0.75015771     0.44200
Cu255      Cu  0.10326087  0.06215565  0.72820422     0.42000
Cu256      Cu  0.09928180  0.03930722  0.77545184     0.43900
N257        N  0.17410573  0.06334694  0.77794917    -0.34700
N258        N  0.14679857  0.05625720  0.78742750    -0.29000
C259        C  0.15598035  0.06318978  0.80482699    -0.05100
C260        C  0.19053864  0.07459260  0.80630757     0.07100
C261        C  0.20119326  0.07436594  0.78903538     0.00900
H262        H  0.13898035  0.06072438  0.81553178     0.08600
H263        H  0.22718133  0.08335074  0.78472694     0.07700
N264        N  0.05598069  0.02543530  0.75993385    -0.36200
N265        N  0.05745149  0.03566234  0.74319130    -0.28400
C266        C  0.02491682  0.02252140  0.73729613    -0.03600
C267        C  0.00200546  0.00265171  0.75084729     0.05000
C268        C  0.02254978  0.00486481  0.76491573     0.03100
H269        H  0.01835431  0.02561343  0.72383068     0.08200
H270        H  0.01382233  0.99220893  0.77780630     0.07000
N271        N  0.80611704  0.04731566  0.78388131    -0.27300
N272        N  0.78346356  0.04993473  0.77445157    -0.35200
C273        C  0.76706980  0.05958134  0.78536006     0.01000
C274        C  0.78035913  0.06386821  0.80244201     0.07000
C275        C  0.80524432  0.05610197  0.80104184    -0.06100
H276        H  0.74805015  0.06474234  0.78099653     0.07700
H277        H  0.82146857  0.05678892  0.81169105     0.08900
Cu278      Cu  0.77966186  0.04573144  0.74670047     0.44200
Cu279      Cu  0.83666012  0.03170564  0.77229400     0.42000
Cu280      Cu  0.84677001  0.04315534  0.72362559     0.43900
N281        N  0.78858598  0.05394703  0.71930963    -0.34700
N282        N  0.81505782  0.05618000  0.71105618    -0.29000
C283        C  0.81607356  0.06621245  0.69395748    -0.05100
C284        C  0.78847114  0.06964881  0.69131376     0.07100
C285        C  0.77158858  0.06155543  0.70762722     0.00900
H286        H  0.83519616  0.07030019  0.68413879     0.08600
H287        H  0.74947249  0.06265915  0.71098620     0.07700
N288        N  0.86712744  0.02052521  0.73892041    -0.36200
N289        N  0.86228189  0.01514298  0.75642133    -0.28400
C290        C  0.87631241  0.99769385  0.76185479    -0.03600
C291        C  0.89086362  0.99205452  0.74716434     0.05000
C292        C  0.88481041  0.00708983  0.73288332     0.03100
H293        H  0.87629857  0.99002312  0.77555100     0.08200
H294        H  0.89223875  0.00775334  0.71906284     0.07000
C295        C  0.91032559  0.97536852  0.74712120     0.80200
N296        N  0.89346427  0.94048465  0.74941888    -0.78100
C297        C  0.91175841  0.92577571  0.75200794     0.82600
N298        N  0.94689587  0.94621561  0.75286823    -0.78100
C299        C  0.96391955  0.98085618  0.74995984     0.82700
N300        N  0.94556914  0.99530130  0.74686419    -0.79800
N301        N  0.85907099  0.74766112  0.78887632    -0.27300
N302        N  0.86001422  0.72363654  0.77980138    -0.35200
C303        C  0.85305685  0.69779559  0.79102493     0.01000
C304        C  0.84680987  0.70556876  0.80788604     0.07000
C305        C  0.85055761  0.73721175  0.80603314    -0.06100
H306        H  0.85046421  0.67404594  0.78695889     0.07700
H307        H  0.84688597  0.75135434  0.81632957     0.08900
Cu308      Cu  0.86383558  0.72361760  0.75202170     0.44200
Cu309      Cu  0.86853741  0.79314256  0.77723321     0.42000
Cu310      Cu  0.85729022  0.78939195  0.72937202     0.43900
N311        N  0.85387342  0.72255056  0.72475547    -0.34700
N312        N  0.84888450  0.74502724  0.71683605    -0.29000
C313        C  0.83818238  0.73448312  0.69989366    -0.05100
C314        C  0.83701862  0.70436631  0.69692649     0.07100
C315        C  0.84723682  0.69760520  0.71293652     0.00900
H316        H  0.83162131  0.74770892  0.69044448     0.08600
H317        H  0.84796351  0.67520567  0.71606331     0.07700
N318        N  0.87270659  0.83363915  0.74449218    -0.36200
N319        N  0.87813674  0.83542110  0.76198463    -0.28400
C320        C  0.89159979  0.86821525  0.76748132    -0.03600
C321        C  0.89403435  0.88782581  0.75284685     0.05000
C322        C  0.88205830  0.86512241  0.73848566     0.03100
H323        H  0.89994215  0.87734802  0.78103503     0.08200
H324        H  0.88199386  0.87148433  0.72454074     0.07000
N325        N  0.05573589  0.70267533  0.36996674    -0.27300
N326        N  0.08651384  0.71174292  0.37584687    -0.35200
C327        C  0.08326543  0.68670636  0.38641120     0.01000
C328        C  0.04854483  0.66014666  0.38744917     0.07000
C329        C  0.03177585  0.67126537  0.37676775    -0.06100
H330        H  0.10454213  0.68901221  0.39378990     0.07700
H331        H  0.00418685  0.65820437  0.37464161     0.08900
Cu332      Cu  0.13043279  0.76054913  0.37251757     0.44200
Cu333      Cu  0.05024284  0.73691114  0.35447110     0.42000
Cu334      Cu  0.12239642  0.82996740  0.35886407     0.43900
N335        N  0.16859479  0.81194630  0.37642297    -0.34700
N336        N  0.16544610  0.83796861  0.37271257    -0.29000
C337        C  0.19309224  0.86730853  0.37955351    -0.05100
C338        C  0.21460042  0.85903937  0.38775199     0.07100
C339        C  0.19807638  0.82375217  0.38544699     0.00900
H340        H  0.19691138  0.89252554  0.37890030     0.08600
H341        H  0.20576228  0.80735192  0.39094882     0.07700
N342        N  0.07921849  0.81108036  0.34223920    -0.36200
N343        N  0.05474937  0.77782781  0.33996170    -0.28400
C344        C  0.03408802  0.77468620  0.32636654    -0.03600
C345        C  0.04549939  0.80736247  0.32005467     0.05000
C346        C  0.07404472  0.82983483  0.33043717     0.03100
H347        H  0.01275225  0.75029097  0.32117739     0.08200
H348        H  0.09120389  0.85755428  0.32871524     0.07000
N349        N  0.67204435  0.08756086  0.62549635    -0.27300
N350        N  0.67902822  0.11821154  0.62071417    -0.35200
C351        C  0.65435693  0.11416457  0.60954947     0.01000
C352        C  0.63036497  0.07912631  0.60701154     0.07000
C353        C  0.64224749  0.06291806  0.61750378    -0.06100
H354        H  0.65503549  0.13533387  0.60296927     0.07700
H355        H  0.63138187  0.03543724  0.61827946     0.08900
Cu356      Cu  0.72560234  0.16387018  0.62581466     0.44200
Cu357      Cu  0.70740158  0.08321812  0.64063919     0.42000
Cu358      Cu  0.79812899  0.15936909  0.63784854     0.43900
N359        N  0.77630942  0.20394540  0.62185842    -0.34700
N360        N  0.80336012  0.20214877  0.62497899    -0.29000
C361        C  0.83169640  0.23035619  0.61778977    -0.05100
C362        C  0.82176860  0.25075977  0.60979186     0.07100
C363        C  0.78644132  0.23298805  0.61276950     0.00900
H364        H  0.85728323  0.23495304  0.61781783     0.08600
H365        H  0.76868526  0.23913030  0.60750433     0.07700
N366        N  0.78172485  0.11537781  0.65349120    -0.36200
N367        N  0.74897480  0.08912390  0.65515626    -0.28400
C368        C  0.74676005  0.06819926  0.66836825    -0.03600
C369        C  0.77959806  0.08134626  0.67509223     0.05000
C370        C  0.80115792  0.11119159  0.66532959     0.03100
H371        H  0.72278508  0.04564725  0.67315009     0.08200
H372        H  0.82849278  0.12987409  0.66761430     0.07000
N373        N  0.32044006  0.10623558  0.62627923    -0.27300
N374        N  0.34422114  0.13573479  0.61873443    -0.35200
C375        C  0.36406936  0.13063163  0.60789795     0.01000
C376        C  0.35240232  0.09595347  0.60846613     0.07000
C377        C  0.32452239  0.08116884  0.62034260    -0.06100
H378        H  0.38397951  0.15047769  0.59932321     0.07700
H379        H  0.30767245  0.05412686  0.62388770     0.08900
Cu380      Cu  0.34445600  0.17998804  0.62065416     0.44200
Cu381      Cu  0.28292341  0.10403334  0.64277540     0.42000
Cu382      Cu  0.27277871  0.17918429  0.63884707     0.43900
N383        N  0.33690420  0.21911138  0.61656400    -0.34700
N384        N  0.31020363  0.21939528  0.62252227    -0.29000
C385        C  0.31224148  0.24752451  0.61569553    -0.05100
C386        C  0.34146886  0.26520441  0.60476521     0.07100
C387        C  0.35633683  0.24634042  0.60585055     0.00900
H388        H  0.29325925  0.25385552  0.61794003     0.08600
H389        H  0.37928788  0.25138843  0.59900428     0.07700
N390        N  0.24495923  0.13698951  0.65632640    -0.36200
N391        N  0.25003588  0.11161730  0.65823154    -0.28400
C392        C  0.23108111  0.09167114  0.67216313    -0.03600
C393        C  0.21261302  0.10442065  0.67912691     0.05000
C394        C  0.22188994  0.13306237  0.66877175     0.03100
H395        H  0.23117011  0.06973274  0.67705500     0.08200
H396        H  0.21405761  0.15093000  0.67081203     0.07000
N397        N  0.52523044  0.84119253  0.36908643    -0.27300
N398        N  0.50252847  0.81135366  0.37676421    -0.35200
C399        C  0.48191226  0.81536458  0.38763894     0.01000
C400        C  0.49199353  0.84961375  0.38699654     0.07000
C401        C  0.51963072  0.86524890  0.37498332    -0.06100
H402        H  0.46292638  0.79531899  0.39647914     0.07700
H403        H  0.53563269  0.89237723  0.37147599     0.08900
Cu404      Cu  0.50601229  0.76898270  0.37590993     0.44200
Cu405      Cu  0.56507868  0.84682275  0.35308904     0.42000
Cu406      Cu  0.58727203  0.78284107  0.36263628     0.43900
N407        N  0.52112741  0.73609766  0.38254560    -0.34700
N408        N  0.55155958  0.74150546  0.37862203    -0.29000
C409        C  0.55457175  0.71766683  0.38721347    -0.05100
C410        C  0.52459405  0.69654905  0.39715047     0.07100
C411        C  0.50404107  0.70905521  0.39367522     0.00900
H412        H  0.57746966  0.71684232  0.38689334     0.08600
H413        H  0.47896582  0.70022889  0.39933087     0.07700
N414        N  0.61258520  0.82263198  0.34394237    -0.36200
N415        N  0.60320519  0.84411718  0.33969634    -0.28400
C416        C  0.62183457  0.86305434  0.32541130    -0.03600
C417        C  0.64444210  0.85360484  0.32073948     0.05000
C418        C  0.63799069  0.82805711  0.33278060     0.03100
H419        H  0.61884936  0.88202482  0.31877815     0.08200
H420        H  0.64942999  0.81303887  0.33275219     0.07000
C421        C  0.39898833  0.96210701  0.48233494     0.02200
C422        C  0.42507511  0.95505201  0.48320977     0.02200
C423        C  0.44568826  0.96428761  0.49866905    -0.18300
C424        C  0.44133605  0.98093165  0.51314005     0.02200
C425        C  0.41499231  0.98760485  0.51230892     0.02200
C426        C  0.39441596  0.97843219  0.49686145    -0.18300
H427        H  0.37384736  0.98302385  0.49638544     0.04200
H428        H  0.46631057  0.95977651  0.49911999     0.04200
N429        N  0.07051788  0.33991986  0.37786788    -0.27300
N430        N  0.09846301  0.37075872  0.38141211    -0.35200
C431        C  0.08929017  0.38968658  0.39028505     0.01000
C432        C  0.05378307  0.36982873  0.39259160     0.07000
C433        C  0.04263064  0.33829641  0.38459502    -0.06100
H434        H  0.10742615  0.41523755  0.39567742     0.07700
H435        H  0.01637929  0.31570853  0.38399519     0.08900
Cu436      Cu  0.14822337  0.38354938  0.37762265     0.44200
Cu437      Cu  0.07317302  0.30206450  0.36451968     0.42000
Cu438      Cu  0.16090309  0.31921589  0.36150328     0.43900
N439        N  0.19262429  0.38484440  0.38251989    -0.34700
N440        N  0.19732291  0.36043110  0.37743676    -0.29000
C441        C  0.22634882  0.36630503  0.38530306    -0.05100
C442        C  0.24030894  0.39578941  0.39594893     0.07100
C443        C  0.21813709  0.40675651  0.39367193     0.00900
H444        H  0.23553630  0.34939982  0.38407274     0.08600
H445        H  0.21931543  0.42818865  0.40023620     0.07700
N446        N  0.11845245  0.28235846  0.34632761    -0.36200
N447        N  0.08652496  0.27483689  0.34815326    -0.28400
C448        C  0.06589114  0.25069345  0.33594822    -0.03600
C449        C  0.08585040  0.24312842  0.32579357     0.05000
C450        C  0.11900961  0.26379242  0.33261813     0.03100
H451        H  0.03898026  0.24133818  0.33374670     0.08200
H452        H  0.14208539  0.26596817  0.32762274     0.07000
N453        N  0.81686197  0.57309709  0.62636776    -0.27300
N454        N  0.78671153  0.54969673  0.61918785    -0.35200
C455        C  0.79091089  0.52992351  0.60775885     0.01000
C456        C  0.82559590  0.54126272  0.60753589     0.07000
C457        C  0.84128338  0.56870689  0.61964733    -0.06100
H458        H  0.77018474  0.50954483  0.59975887     0.07700
H459        H  0.86859541  0.58523773  0.62274262     0.08900
Cu460      Cu  0.74224021  0.54915205  0.62286422     0.44200
Cu461      Cu  0.82146228  0.61083925  0.64371469     0.42000
Cu462      Cu  0.74960242  0.62480160  0.64038631     0.43900
N463        N  0.70368906  0.55845486  0.62048541    -0.34700
N464        N  0.70652306  0.58706958  0.62584700    -0.29000
C465        C  0.67887593  0.58675130  0.61976149    -0.05100
C466        C  0.65777913  0.55642792  0.61000537     0.07100
C467        C  0.67450804  0.53921922  0.61098193     0.00900
H468        H  0.67529830  0.60774014  0.62162517     0.08600
H469        H  0.66722519  0.51522198  0.60453321     0.07700
N470        N  0.79196588  0.65140968  0.65770472    -0.36200
N471        N  0.81627820  0.64484293  0.65969188    -0.28400
C472        C  0.83631756  0.66304924  0.67379545    -0.03600
C473        C  0.82459303  0.68248666  0.68074796     0.05000
C474        C  0.79662445  0.67463592  0.67018416     0.03100
H475        H  0.85766881  0.66195360  0.67873260     0.08200
H476        H  0.77964728  0.68361024  0.67208571     0.07000
C477        C  0.95625322  0.47989848  0.48516862     0.02200
C478        C  0.95182409  0.44719552  0.48412128     0.02200
C479        C  0.93822379  0.42477754  0.49886583    -0.18300
C480        C  0.92890126  0.43410502  0.51463496     0.02200
C481        C  0.93265027  0.46651444  0.51570283     0.02200
C482        C  0.94688629  0.48930137  0.50100532    -0.18300
H483        H  0.94934798  0.51395619  0.50159256     0.04200
H484        H  0.93557791  0.40002575  0.49822603     0.04200
C485        C  0.43684276  0.46825703  0.52027989     0.02200
C486        C  0.47061754  0.49885074  0.52029159     0.02200
C487        C  0.48123963  0.52175223  0.50575713    -0.18300
C488        C  0.45964327  0.51466200  0.49095799     0.02200
C489        C  0.42626017  0.48363315  0.49060360     0.02200
C490        C  0.41521231  0.46121176  0.50543389    -0.18300
H491        H  0.38958402  0.43750198  0.50525368     0.04200
H492        H  0.50691427  0.54543395  0.50589693     0.04200
C493        C  0.83965580  0.49726624  0.56872941    -0.10900
C494        C  0.87351810  0.50582875  0.57170069     0.06300
C495        C  0.89148915  0.52587313  0.58688702    -0.09700
C496        C  0.87601776  0.53724987  0.59864087    -0.11300
C497        C  0.84217003  0.52868855  0.59553235    -0.01100
C498        C  0.82420260  0.50834651  0.58047595    -0.10200
C499        C  0.88989376  0.49460383  0.55857838     0.06300
H500        H  0.91745022  0.53265425  0.58974415     0.08200
H501        H  0.89053589  0.55262744  0.61017293     0.11700
H502        H  0.79836067  0.50157148  0.57737471     0.11900
H503        H  0.82521699  0.48269959  0.55699078     0.08200
C504        C  0.86962034  0.46270426  0.54959909    -0.10900
C505        C  0.88375390  0.45353106  0.53595848    -0.10200
C506        C  0.91872550  0.47559470  0.53113554    -0.01100
C507        C  0.93943327  0.50702139  0.54037609    -0.11300
C508        C  0.92521147  0.51639459  0.55400720    -0.09700
H509        H  0.84254267  0.44489976  0.55291754     0.08200
H510        H  0.86703062  0.42947712  0.52882752     0.11900
H511        H  0.96645884  0.52454231  0.53682915     0.11700
H512        H  0.94157487  0.54128662  0.56046372     0.08200
C513        C  0.58322621  0.55618611  0.58799332    -0.10900
C514        C  0.57182098  0.52962662  0.57528147     0.06300
C515        C  0.58712988  0.51065270  0.57495581    -0.09700
C516        C  0.61414305  0.51876370  0.58658239    -0.11300
C517        C  0.62688498  0.54631745  0.59883616    -0.01100
C518        C  0.61068569  0.56460929  0.59961705    -0.10200
C519        C  0.54577550  0.52283155  0.56147615     0.06300
H520        H  0.57852513  0.48978538  0.56542087     0.08200
H521        H  0.62553822  0.50383043  0.58545266     0.11700
H522        H  0.61952746  0.58575270  0.60896367     0.11900
H523        H  0.57179184  0.57121998  0.58846789     0.08200
C524        C  0.51379713  0.51771325  0.56605995    -0.10900
C525        C  0.48906037  0.50981766  0.55275231    -0.10200
C526        C  0.49618320  0.50727212  0.53471145    -0.01100
C527        C  0.52839547  0.51306959  0.53017897    -0.11300
C528        C  0.55283533  0.52061619  0.54340631    -0.09700
H529        H  0.50776856  0.51918570  0.57991998     0.08200
H530        H  0.46443546  0.50568777  0.55649508     0.11900
H531        H  0.53444291  0.51126808  0.51636038     0.11700
H532        H  0.57742623  0.52480769  0.53950936     0.08200
C533        C  0.95256990  0.39392342  0.44575339    -0.10900
C534        C  0.98764591  0.41376903  0.44063170     0.06300
C535        C  0.01029657  0.44533381  0.44948638    -0.09700
C536        C  0.99833765  0.45662481  0.46319662    -0.11300
C537        C  0.96349943  0.43662925  0.46842122    -0.01100
C538        C  0.94065032  0.40520895  0.45958692    -0.10200
C539        C  0.00129742  0.40131384  0.42670436     0.06300
H540        H  0.03762618  0.46085870  0.44624649     0.08200
H541        H  0.01657090  0.48047703  0.47014829     0.11700
H542        H  0.91367066  0.38930746  0.46352940     0.11900
H543        H  0.93439831  0.36965546  0.43912815     0.08200
C544        C  0.98983344  0.36617223  0.42567876    -0.10900
C545        C  0.00573487  0.35543751  0.41391316    -0.10200
C546        C  0.03361081  0.37972258  0.40317506    -0.01100
C547        C  0.04402898  0.41445549  0.40362774    -0.11300
C548        C  0.02783108  0.42506797  0.41511036    -0.09700
H549        H  0.96968529  0.34723636  0.43452432     0.08200
H550        H  0.99741229  0.32852295  0.41387661     0.11900
H551        H  0.06513245  0.43357401  0.39526356     0.11700
H552        H  0.03665427  0.45211952  0.41518806     0.08200
C553        C  0.32217131  0.41553215  0.41952697    -0.10900
C554        C  0.32568026  0.43817465  0.43322961     0.06300
C555        C  0.30126752  0.44711035  0.43429410    -0.09700
C556        C  0.27390435  0.43356893  0.42212117    -0.11300
C557        C  0.27007695  0.41061970  0.40853541    -0.01100
C558        C  0.29461158  0.40182173  0.40734428    -0.10200
C559        C  0.35347969  0.45106795  0.44696657     0.06300
H560        H  0.30266971  0.46382114  0.44488777     0.08200
H561        H  0.25533965  0.44061626  0.42372244     0.11700
H562        H  0.29264482  0.38447527  0.39697717     0.11900
H563        H  0.34077383  0.40842410  0.41820484     0.08200
C564        C  0.36262744  0.42898171  0.45392124    -0.10900
C565        C  0.38680284  0.44003958  0.46776301    -0.10200
C566        C  0.40232005  0.47336210  0.47507946    -0.01100
C567        C  0.39353592  0.49567592  0.46804170    -0.11300
C568        C  0.36963111  0.48476735  0.45401292    -0.09700
H569        H  0.35031738  0.40271502  0.44905020     0.08200
H570        H  0.39308987  0.42231306  0.47296142     0.11900
H571        H  0.40458586  0.52127518  0.47362392     0.11700
H572        H  0.36344721  0.50257557  0.44884153     0.08200
C573        C  0.48814608  0.91702707  0.41416513    -0.02900
C574        C  0.45845752  0.89602893  0.42470387     0.06300
C575        C  0.43848147  0.86019604  0.42164217    -0.09700
C576        C  0.44866119  0.84545809  0.40887400    -0.11300
C577        C  0.47930494  0.86612768  0.39892212    -0.01100
C578        C  0.49851635  0.90222217  0.40142178    -0.10200
C579        C  0.44914007  0.91098884  0.43946511     0.06300
H580        H  0.41509379  0.84346517  0.42930505     0.08200
H581        H  0.43267148  0.81769199  0.40707341     0.11700
H582        H  0.52221390  0.91898801  0.39403001     0.11900
H583        H  0.50409577  0.94474928  0.41628142     0.08200
C584        C  0.43989249  0.89492201  0.45638060    -0.10900
C585        C  0.43186005  0.90914064  0.47050904    -0.10200
C586        C  0.43246213  0.93946278  0.46796532    -0.01100
C587        C  0.44141461  0.95546962  0.45105672    -0.11300
C588        C  0.44986697  0.94145661  0.43694507    -0.09700
H589        H  0.43953900  0.87167109  0.45877707     0.08200
H590        H  0.42515582  0.89648405  0.48346193     0.11900
H591        H  0.44235059  0.97908742  0.44887508     0.11700
H592        H  0.45676160  0.95427847  0.42404084     0.08200
C593        C  0.49153503  0.59930951  0.46772789    -0.10900
C594        C  0.49439583  0.59181776  0.44983135     0.06300
C595        C  0.48745300  0.55901484  0.44551952    -0.09700
C596        C  0.47643034  0.53368883  0.45886235    -0.11300
C597        C  0.47251449  0.54107105  0.47663322    -0.01100
C598        C  0.48083407  0.57425203  0.48098525    -0.10200
C599        C  0.50205303  0.61763227  0.43576961     0.06300
H600        H  0.48937057  0.55265254  0.43178928     0.08200
H601        H  0.47046502  0.50827632  0.45532134     0.11700
H602        H  0.47818191  0.58047425  0.49463385     0.11900
H603        H  0.49710207  0.62452137  0.47141155     0.08200
C604        C  0.48371739  0.63362678  0.43575189    -0.10900
C605        C  0.49106790  0.65896028  0.42318030    -0.10200
C606        C  0.51701859  0.66908205  0.41021882    -0.01100
C607        C  0.53538649  0.65295292  0.41011337    -0.11300
C608        C  0.52775449  0.62717905  0.42273365    -0.09700
H609        H  0.46355586  0.62649162  0.44555217     0.08200
H610        H  0.47660081  0.67092606  0.42392601     0.11900
H611        H  0.55545280  0.66009249  0.40027522     0.11700
H612        H  0.54231160  0.61521996  0.42255159     0.08200
C613        C  0.36004736  0.35049315  0.58611839    -0.10900
C614        C  0.38142790  0.35560532  0.57136232     0.06300
C615        C  0.38784788  0.33000364  0.56740934    -0.09700
C616        C  0.37438340  0.30073904  0.57813817    -0.11300
C617        C  0.35379095  0.29588149  0.59313548    -0.01100
C618        C  0.34624436  0.32078825  0.59688817    -0.10200
C619        C  0.39685663  0.38694041  0.55976984     0.06300
H620        H  0.40307676  0.33232236  0.55581808     0.08200
H621        H  0.37996168  0.28169979  0.57447395     0.11700
H622        H  0.33043473  0.31772694  0.60835260     0.11900
H623        H  0.35456702  0.36971984  0.58954247     0.08200
C624        C  0.37789045  0.40121585  0.55497227    -0.10900
C625        C  0.39137861  0.42839017  0.54257487    -0.10200
C626        C  0.42406598  0.44183719  0.53473814    -0.01100
C627        C  0.44329350  0.42810288  0.53982899    -0.11300
C628        C  0.43010583  0.40139302  0.55237575    -0.09700
H629        H  0.35211667  0.39054785  0.56025545     0.08200
H630        H  0.37597546  0.43846682  0.53879452     0.11900
H631        H  0.46819571  0.43738975  0.53374711     0.11700
H632        H  0.44575621  0.39153197  0.55600213     0.08200
C633        C  0.35421252  0.02728391  0.58150699    -0.10900
C634        C  0.38423397  0.04775416  0.57113051     0.06300
C635        C  0.40520424  0.08347264  0.57433513    -0.09700
C636        C  0.39560933  0.09872223  0.58707537    -0.11300
C637        C  0.36452316  0.07868594  0.59677902    -0.01100
C638        C  0.34437079  0.04262225  0.59419254    -0.10200
C639        C  0.39272709  0.03243449  0.55627170     0.06300
H640        H  0.42883120  0.09971209  0.56675421     0.08200
H641        H  0.41235502  0.12641135  0.58898889     0.11700
H642        H  0.32035448  0.02636716  0.60142953     0.11900
H643        H  0.33758388  0.99963833  0.57925080     0.08200
C644        C  0.39188682  0.00193069  0.55877710    -0.10900
C645        C  0.39949019  0.98750277  0.54453630    -0.10200
C646        C  0.40766671  0.00316095  0.52754611    -0.01100
C647        C  0.40828968  0.03348840  0.52501582    -0.11300
C648        C  0.40114710  0.04814087  0.53927720    -0.09700
H649        H  0.38557944  0.98943851  0.57176437     0.08200
H650        H  0.39865851  0.96393465  0.54670063     0.11900
H651        H  0.41451108  0.04590725  0.51200599     0.11700
H652        H  0.40158712  0.07146093  0.53695537     0.08200
C653        C  0.84507073  0.32786746  0.58089287    -0.10900
C654        C  0.87569572  0.33552511  0.57264766     0.06300
C655        C  0.89052280  0.31729948  0.57779799    -0.09700
C656        C  0.87384816  0.29050237  0.59045192    -0.11300
C657        C  0.84224362  0.28177624  0.59817885    -0.01100
C658        C  0.82869858  0.30154460  0.59362303    -0.10200
C659        C  0.89027222  0.36070382  0.55777914     0.06300
H660        H  0.91415226  0.32284164  0.57149348     0.08200
H661        H  0.88499074  0.27582862  0.59361825     0.11700
H662        H  0.80490846  0.29623197  0.59955878     0.11900
H663        H  0.83344286  0.34189004  0.57718426     0.08200
C664        C  0.87061606  0.35387892  0.54215790    -0.10900
C665        C  0.88334204  0.37778938  0.52814476    -0.10200
C666        C  0.91550322  0.40931596  0.52973067    -0.01100
C667        C  0.93522728  0.41632997  0.54536288    -0.11300
C668        C  0.92281750  0.39194797  0.55926267    -0.09700
H669        H  0.84544062  0.32989834  0.54080566     0.08200
H670        H  0.86794353  0.37194021  0.51612100     0.11900
H671        H  0.96027288  0.44045733  0.54669023     0.11700
H672        H  0.93822288  0.39766051  0.57126733     0.08200
C673        C  0.57683262  0.06791341  0.56605558    -0.10900
C674        C  0.54682532  0.03460958  0.56852133     0.06300
C675        C  0.54484961  0.01560381  0.58375891    -0.09700
C676        C  0.57207744  0.02973948  0.59621683    -0.11300
C677        C  0.60156480  0.06334112  0.59384389    -0.01100
C678        C  0.60361453  0.08215305  0.57859311    -0.10200
C679        C  0.51814018  0.02008902  0.55510280     0.06300
H680        H  0.52206443  0.99002672  0.58623346     0.08200
H681        H  0.56977469  0.01468248  0.60787200     0.11700
H682        H  0.62629919  0.10778619  0.57609898     0.11900
H683        H  0.57998817  0.08298990  0.55426092     0.08200
C684        C  0.51097676  0.04205781  0.54595431    -0.10900
C685        C  0.48581487  0.02918593  0.53254027    -0.10200
C686        C  0.46665606  0.99391105  0.52811985    -0.01100
C687        C  0.47304411  0.97164836  0.53743366    -0.11300
C688        C  0.49848771  0.98457288  0.55081180    -0.09700
H689        H  0.52490529  0.06937238  0.54909204     0.08200
H690        H  0.48166502  0.04694815  0.52539235     0.11900
H691        H  0.45859501  0.94432873  0.53419296     0.11700
H692        H  0.50343194  0.96689017  0.55738426     0.08200
C693        C  0.27751058  0.92441386  0.42185176    -0.10900
C694        C  0.30035448  0.91356051  0.42400093     0.06300
C695        C  0.29719632  0.88799022  0.41249464    -0.09700
C696        C  0.27038445  0.87181009  0.40004375    -0.11300
C697        C  0.24613712  0.88090890  0.39867052    -0.01100
C698        C  0.25059356  0.90822620  0.40922179    -0.10200
C699        C  0.32583871  0.92666296  0.43890716     0.06300
H700        H  0.31496115  0.87975512  0.41348165     0.08200
H701        H  0.26801280  0.85133473  0.39181996     0.11700
H702        H  0.23218897  0.91567463  0.40844825     0.11900
H703        H  0.27934195  0.94408705  0.43054288     0.08200
C704        C  0.34589564  0.96195492  0.44348748    -0.10900
C705        C  0.36995078  0.97364357  0.45752341    -0.10200
C706        C  0.37435564  0.95024441  0.46713327    -0.01100
C707        C  0.35400862  0.91501241  0.46272636    -0.11300
C708        C  0.33003278  0.90334877  0.44878907    -0.09700
H709        H  0.34326359  0.98049005  0.43609018     0.08200
H710        H  0.38529685  0.00094153  0.46082800     0.11900
H711        H  0.35640426  0.89643521  0.47024832     0.11700
H712        H  0.31436734  0.87588923  0.44588831     0.08200
C713        C  0.96191104  0.51868534  0.43943758    -0.10900
C714        C  0.99391898  0.55073377  0.44053560     0.06300
C715        C  0.01352063  0.55895684  0.45636258    -0.09700
C716        C  0.00118232  0.53598185  0.47084864    -0.11300
C717        C  0.96929935  0.50405844  0.46970766    -0.01100
C718        C  0.94985036  0.49542795  0.45385296    -0.10200
C719        C  0.00674728  0.57606137  0.42550976     0.06300
H720        H  0.03809824  0.58356995  0.45769341     0.08200
H721        H  0.01656773  0.54302505  0.48295338     0.11700
H722        H  0.92516340  0.47084964  0.45274102     0.11900
H723        H  0.94637307  0.51154370  0.42738984     0.08200
C724        C  0.04176431  0.59435961  0.42048273    -0.10900
C725        C  0.05482301  0.62053940  0.40760006    -0.10200
C726        C  0.03330095  0.62941351  0.39947186    -0.01100
C727        C  0.99785397  0.60998015  0.40386737    -0.11300
C728        C  0.98470475  0.58353039  0.41673097    -0.09700
H729        H  0.05922899  0.58868811  0.42671093     0.08200
H730        H  0.08204733  0.63418464  0.40428629     0.11900
H731        H  0.98046019  0.61596314  0.39789046     0.11700
H732        H  0.95758622  0.56990521  0.42035402     0.08200
C733        C  0.48131145  0.89813662  0.08974942    -0.10900
C734        C  0.46143106  0.88056792  0.07448464     0.06300
C735        C  0.45305074  0.84698770  0.07107679    -0.09700
C736        C  0.46465449  0.83150734  0.08243418    -0.11300
C737        C  0.48507378  0.84917063  0.09755521    -0.01100
C738        C  0.49295846  0.88258293  0.10118169    -0.10200
C739        C  0.45092805  0.89756603  0.06153217     0.06300
H740        H  0.43837340  0.83299464  0.05926288     0.08200
H741        H  0.45820357  0.80595460  0.07895772     0.11700
H742        H  0.50832330  0.89686953  0.11275786     0.11900
H743        H  0.48794019  0.92396415  0.09281413     0.08200
C744        C  0.47458390  0.93206860  0.05630621    -0.10900
C745        C  0.46613238  0.94693576  0.04271150    -0.10200
C746        C  0.43379157  0.92773684  0.03411140    -0.01100
C747        C  0.40966139  0.89363544  0.03970578    -0.11300
C748        C  0.41811498  0.87872252  0.05330670    -0.09700
H749        H  0.50017616  0.94714024  0.06221301     0.08200
H750        H  0.48516702  0.97329038  0.03860869     0.11900
H751        H  0.38467886  0.87822316  0.03318378     0.11700
H752        H  0.39919922  0.85219638  0.05717322     0.08200
C753        C  0.36504645  0.01811581  0.91576619    -0.10900
C754        C  0.38673056  0.03642687  0.93042013     0.06300
C755        C  0.39920052  0.07167611  0.93229081    -0.09700
C756        C  0.38984503  0.08798579  0.92004672    -0.11300
C757        C  0.36748085  0.06944979  0.90566896    -0.01100
C758        C  0.35540836  0.03437747  0.90360245    -0.10200
C759        C  0.39517541  0.01863789  0.94410048     0.06300
H760        H  0.41538549  0.08653515  0.94354804     0.08200
H761        H  0.39941150  0.11492216  0.92223308     0.11700
H762        H  0.33853659  0.01943803  0.89256133     0.11900
H763        H  0.35547151  0.99113700  0.91366218     0.08200
C764        C  0.37029322  0.98425173  0.94916311    -0.10900
C765        C  0.37733303  0.96819623  0.96274792    -0.10200
C766        C  0.40935371  0.98610945  0.97165306    -0.01100
C767        C  0.43444687  0.02026312  0.96650561    -0.11300
C768        C  0.42755829  0.03625646  0.95279892    -0.09700
H769        H  0.34488698  0.97000425  0.94303557     0.08200
H770        H  0.35750664  0.94188505  0.96653943     0.11900
H771        H  0.45915707  0.03483955  0.97334708     0.11700
H772        H  0.44755984  0.06254836  0.94912309     0.08200
C773        C  0.35594404  0.93184998  0.06311785    -0.10900
C774        C  0.32045861  0.91162321  0.05905912     0.06300
C775        C  0.31004438  0.90190351  0.04122462    -0.09700
C776        C  0.33472046  0.91167726  0.02769704    -0.11300
C777        C  0.37037237  0.93193712  0.03166777    -0.01100
C778        C  0.38067297  0.94243491  0.04951141    -0.10200
C779        C  0.29423708  0.89855234  0.07349796     0.06300
H780        H  0.28277221  0.88594155  0.03785485     0.08200
H781        H  0.32592142  0.90316356  0.01410313     0.11700
H782        H  0.40784687  0.95896459  0.05294556     0.11900
H783        H  0.36446700  0.93962185  0.07681545     0.08200
C784        C  0.29359392  0.87667727  0.08668838    -0.10900
C785        C  0.26666773  0.86084408  0.09918518    -0.10200
C786        C  0.24024274  0.86715074  0.09898781    -0.01100
C787        C  0.24188692  0.89056020  0.08639268    -0.11300
C788        C  0.26845837  0.90577787  0.07355581    -0.09700
H789        H  0.31313813  0.87066805  0.08681867     0.08200
H790        H  0.26604434  0.84297078  0.10878187     0.11900
H791        H  0.22168663  0.89562135  0.08586670     0.11700
H792        H  0.26856226  0.92263156  0.06346097     0.08200
C793        C  0.46600744  0.55563298  0.04301854    -0.10900
C794        C  0.49816223  0.56951683  0.05153702     0.06300
C795        C  0.51744441  0.55511001  0.04787104    -0.09700
C796        C  0.50541022  0.52830235  0.03534380    -0.11300
C797        C  0.47375072  0.51524369  0.02644454    -0.01100
C798        C  0.45404366  0.52895166  0.03054912    -0.10200
C799        C  0.51199277  0.60013581  0.06338980     0.06300
H800        H  0.54237405  0.56544011  0.05417352     0.08200
H801        H  0.52111164  0.51820362  0.03231293     0.11700
H802        H  0.42989576  0.51982769  0.02364223     0.11900
H803        H  0.45036929  0.56591969  0.04575660     0.08200
C804        C  0.50884172  0.62738528  0.05817743    -0.10900
C805        C  0.51912063  0.65515646  0.06964071    -0.10200
C806        C  0.53304171  0.65654374  0.08656682    -0.01100
C807        C  0.53808506  0.63037411  0.09149328    -0.11300
C808        C  0.52751241  0.60224011  0.07998263    -0.09700
H809        H  0.49794310  0.62699118  0.04526499     0.08200
H810        H  0.51565597  0.67538788  0.06534266     0.11900
H811        H  0.54871706  0.63090574  0.10450735     0.11700
H812        H  0.53030421  0.58158627  0.08430056     0.08200
C813        C  0.41520664  0.34137489  0.91379901    -0.10900
C814        C  0.39217442  0.34666357  0.92320904     0.06300
C815        C  0.35654084  0.32517157  0.91924361    -0.09700
C816        C  0.34422404  0.29809078  0.90681813    -0.11300
C817        C  0.36724179  0.29174170  0.89827327    -0.01100
C818        C  0.40289328  0.31418670  0.90159604    -0.10200
C819        C  0.40531490  0.37335644  0.93764714     0.06300
H820        H  0.33797261  0.32827592  0.92628793     0.08200
H821        H  0.31659070  0.28112972  0.90458986     0.11700
H822        H  0.42136630  0.31040403  0.89495248     0.11900
H823        H  0.44286439  0.35799572  0.91603599     0.08200
C824        C  0.43297034  0.37974479  0.94867965    -0.10900
C825        C  0.44512005  0.40420371  0.96244390    -0.10200
C826        C  0.42972138  0.42260667  0.96564244    -0.01100
C827        C  0.40205459  0.41633478  0.95480329    -0.11300
C828        C  0.39009584  0.39211113  0.94085264    -0.09700
H829        H  0.44479343  0.36525360  0.94697740     0.08200
H830        H  0.46606255  0.40821555  0.97089587     0.11900
H831        H  0.38977053  0.43024590  0.95714890     0.11700
H832        H  0.36904909  0.38819881  0.93254774     0.08200
C833        C  0.99269796  0.54664641  0.04152485    -0.10900
C834        C  0.98249054  0.53801992  0.05949899     0.06300
C835        C  0.95846610  0.50307034  0.06396523    -0.09700
C836        C  0.94518764  0.47730735  0.05068928    -0.11300
C837        C  0.95567286  0.48613761  0.03274247    -0.01100
C838        C  0.97947437  0.52107243  0.02834673    -0.10200
C839        C  0.99765022  0.56566724  0.07338538     0.06300
H840        H  0.95030372  0.49567193  0.07773258     0.08200
H841        H  0.92655278  0.45060433  0.05437964     0.11700
H842        H  0.98791212  0.52859628  0.01461292     0.11900
H843        H  0.01078202  0.57334363  0.03761071     0.08200
C844        C  0.03325152  0.59139520  0.07310582    -0.10900
C845        C  0.04781897  0.61840007  0.08551968    -0.10200
C846        C  0.02720161  0.62064703  0.09859284    -0.01100
C847        C  0.99152661  0.59466136  0.09901686    -0.11300
C848        C  0.97692916  0.56735128  0.08658861    -0.09700
H849        H  0.04997324  0.59062384  0.06322864     0.08200
H850        H  0.07528124  0.63775339  0.08455352     0.11900
H851        H  0.97482708  0.59541339  0.10889133     0.11700
H852        H  0.94933666  0.54798866  0.08704141     0.08200
C853        C  0.90894864  0.47371906  0.94151499    -0.10900
C854        C  0.88070847  0.47702203  0.94353549     0.06300
C855        C  0.86364522  0.46891111  0.96017711    -0.09700
C856        C  0.87469721  0.45802843  0.97453027    -0.11300
C857        C  0.90277049  0.45460387  0.97250395    -0.01100
C858        C  0.91977162  0.46239346  0.95587548    -0.10200
C859        C  0.86868047  0.48888002  0.92852234     0.06300
H860        H  0.84206167  0.47160216  0.96218011     0.08200
H861        H  0.86139664  0.45234254  0.98727686     0.11700
H862        H  0.94173732  0.46023096  0.95412383     0.11900
H863        H  0.92242571  0.47964767  0.92881817     0.08200
C864        C  0.89199190  0.51834478  0.91833480    -0.10900
C865        C  0.87968389  0.53141187  0.90560416    -0.10200
C866        C  0.84386332  0.51503739  0.90275702    -0.01100
C867        C  0.82093599  0.48435302  0.91225144    -0.11300
C868        C  0.83314837  0.47164205  0.92500919    -0.09700
H869        H  0.91959048  0.53210008  0.92076819     0.08200
H870        H  0.89815406  0.55488544  0.89847456     0.11900
H871        H  0.79327083  0.47019587  0.91019085     0.11700
H872        H  0.81465090  0.44844239  0.93236374     0.08200
C873        C  0.55537033  0.49550906  0.95766444    -0.10900
C874        C  0.55187845  0.50736054  0.94098593     0.06300
C875        C  0.52286429  0.50897286  0.93785319    -0.09700
C876        C  0.49744564  0.49823141  0.95112204    -0.11300
C877        C  0.50113872  0.48638832  0.96774132    -0.01100
C878        C  0.53037204  0.48538904  0.97096230    -0.10200
C879        C  0.57835970  0.51709806  0.92695083     0.06300
H880        H  0.51962544  0.51794278  0.92507847     0.08200
H881        H  0.47512053  0.49945377  0.94853047     0.11700
H882        H  0.53369907  0.47657883  0.98377316     0.11900
H883        H  0.57768482  0.49436451  0.96045049     0.08200
C884        C  0.58901691  0.49474250  0.92310466    -0.10900
C885        C  0.61619321  0.50464827  0.91123516    -0.10200
C886        C  0.63385282  0.53745637  0.90303572    -0.01100
C887        C  0.62214476  0.55932130  0.90628092    -0.11300
C888        C  0.59449242  0.54913936  0.91809403    -0.09700
H889        H  0.57653890  0.46963894  0.92952052     0.08200
H890        H  0.62359146  0.48656655  0.90883418     0.11900
H891        H  0.63489441  0.58464993  0.90015315     0.11700
H892        H  0.58663611  0.56680876  0.92086238     0.08200
C893        C  0.34866293  0.43492454  0.03722877    -0.10900
C894        C  0.35668627  0.42859563  0.05435606     0.06300
C895        C  0.38843469  0.43190834  0.05700304    -0.09700
C896        C  0.41199248  0.44206099  0.04283383    -0.11300
C897        C  0.40390495  0.44854863  0.02577981    -0.01100
C898        C  0.37193640  0.44454857  0.02305150    -0.10200
C899        C  0.33191751  0.41910156  0.06932116     0.06300
H900        H  0.39525468  0.42729952  0.07008467     0.08200
H901        H  0.43650666  0.44482516  0.04513652     0.11700
H902        H  0.36525231  0.44940400  0.00998865     0.11900
H903        H  0.32419592  0.43217754  0.03478319     0.08200
C904        C  0.31629791  0.43750586  0.07180530    -0.10900
C905        C  0.29073976  0.42719776  0.08477576    -0.10200
C906        C  0.27974829  0.39789863  0.09550275    -0.01100
C907        C  0.29655200  0.38036858  0.09362157    -0.11300
C908        C  0.32253348  0.39098110  0.08066198    -0.09700
H909        H  0.32363421  0.45976426  0.06352916     0.08200
H910        H  0.27927675  0.44206350  0.08611026     0.11900
H911        H  0.28888945  0.35781198  0.10168107     0.11700
H912        H  0.33428852  0.37639808  0.07901447     0.08200
C913        C  0.04145718  0.40275548  0.06772046    -0.10900
C914        C  0.00643722  0.38999683  0.07072450     0.06300
C915        C  0.98906685  0.36628769  0.08483623    -0.09700
C916        C  0.00665904  0.35624587  0.09587072    -0.11300
C917        C  0.04195748  0.36975469  0.09302219    -0.01100
C918        C  0.05891292  0.39284825  0.07867627    -0.10200
C919        C  0.98844347  0.40110813  0.05878691     0.06300
H920        H  0.96206090  0.35596057  0.08753817     0.08200
H921        H  0.99279088  0.33840530  0.10677407     0.11700
H922        H  0.08576720  0.40319708  0.07564448     0.11900
H923        H  0.05541413  0.42013624  0.05666155     0.08200
C924        C  0.00609179  0.43529894  0.05225772    -0.10900
C925        C  0.99076310  0.44496525  0.03953678    -0.10200
C926        C  0.95713305  0.42088577  0.03327889    -0.01100
C927        C  0.93894388  0.38708680  0.04029150    -0.11300
C928        C  0.95439746  0.37729187  0.05289491    -0.09700
H929        H  0.03214119  0.45449716  0.05671330     0.08200
H930        H  0.00567447  0.47098409  0.03415969     0.11900
H931        H  0.91299671  0.36796763  0.03564729     0.11700
H932        H  0.94016675  0.35071076  0.05747892     0.08200
C933        C  0.91372233  0.36153572  0.94867809    -0.10900
C934        C  0.87911075  0.34515796  0.94301569     0.06300
C935        C  0.85692414  0.35150848  0.95257682    -0.09700
C936        C  0.86913777  0.37405262  0.96721888    -0.11300
C937        C  0.90376387  0.39069985  0.97267443    -0.01100
C938        C  0.92590086  0.38403402  0.96340860    -0.10200
C939        C  0.86584993  0.32139850  0.92728773     0.06300
H940        H  0.82993877  0.33873845  0.94885032     0.08200
H941        H  0.85151384  0.37844314  0.97436332     0.11700
H942        H  0.95273889  0.39668160  0.96742090     0.11900
H943        H  0.93151698  0.35739550  0.94154473     0.08200
C944        C  0.84239951  0.32146501  0.91535470    -0.10900
C945        C  0.82730754  0.29717860  0.90153569    -0.10200
C946        C  0.83551562  0.27241914  0.89916901    -0.01100
C947        C  0.86033860  0.27339422  0.91044075    -0.11300
C948        C  0.87527414  0.29758338  0.92442880    -0.09700
H949        H  0.83525156  0.33999789  0.91687848     0.08200
H950        H  0.80857058  0.29728772  0.89289590     0.11900
H951        H  0.86688452  0.25438741  0.90902752     0.11700
H952        H  0.89309819  0.29670283  0.93344148     0.08200
C953        C  0.53188002  0.01983735  0.96453587    -0.10900
C954        C  0.52248603  0.00890324  0.94666823     0.06300
C955        C  0.48760633  0.98346700  0.94279502    -0.09700
C956        C  0.46259265  0.97004120  0.95639688    -0.11300
C957        C  0.47194365  0.98184835  0.97412278    -0.01100
C958        C  0.50690896  0.00641426  0.97809999    -0.10200
C959        C  0.54883233  0.02499355  0.93211425     0.06300
H960        H  0.47949543  0.97462323  0.92917292     0.08200
H961        H  0.43585103  0.95071584  0.95305891     0.11700
H962        H  0.51478467  0.01575665  0.99168473     0.11900
H963        H  0.55859708  0.03892417  0.96802934     0.08200
C964        C  0.57383013  0.06079944  0.93222149    -0.10900
C965        C  0.59860912  0.07631559  0.91863359    -0.10200
C966        C  0.59921936  0.05646976  0.90452960    -0.01100
C967        C  0.57413667  0.02061087  0.90436234    -0.11300
C968        C  0.54914354  0.00506292  0.91797191    -0.09700
H969        H  0.57402057  0.07700575  0.94274857     0.08200
H970        H  0.61750658  0.10390584  0.91941258     0.11900
H971        H  0.57370755  0.00452354  0.89370780     0.11700
H972        H  0.53035097  0.97736237  0.91756156     0.08200
loop_ 
_geom_bond_atom_site_label_1 
_geom_bond_atom_site_label_2 
_geom_bond_distance 
_geom_bond_site_symmetry_2 
_ccdc_geom_bond_type 
N1            N2   1.323       .  A
N1            C5   1.349       .  A
N1           Cu9   2.091       .  S
N2            C3   1.345       .  A
N2           Cu8   2.073       .  S
C3            C4   1.381       .  A
C3            H6   1.082       .  S
C4            C5   1.385       .  A
C4          C235   1.472       .  S
C5            H7   1.082       .  S
Cu8          N11   2.073       .  S
Cu9          N19   2.091       .  S
Cu10         N12   2.085       .  S
Cu10         N18   2.085       .  S
N11          N12   1.322       .  A
N11          C15   1.345       .  A
N12          C13   1.347       .  A
C13          C14   1.384       .  A
C13          H16   1.082       .  S
C14          C15   1.381       .  A
C14         C417   1.471       .  S
C15          H17   1.082       .  S
N18          N19   1.324       .  A
N18          C22   1.348       .  A
N19          C20   1.348       .  A
C20          C21   1.383       .  A
C20          H23   1.082       .  S
C21          C22   1.383       .  A
C21          C75   1.471       .  S
C22          H24   1.082       .  S
N25          N26   1.322       .  A
N25          C29   1.347       .  A
N25         Cu33   2.079       .  S
N26          C27   1.345       .  A
N26         Cu32   2.069       .  S
C27          C28   1.380       .  A
C27          H30   1.082       .  S
C28          C29   1.382       .  A
C28         C123   1.466       .  S
C29          H31   1.082       .  S
Cu32         N35   2.069       .  S
Cu33         N43   2.080   1_455  S
Cu34         N36   2.088       .  S
Cu34         N42   2.089   1_455  S
N35          N36   1.323       .  A
N35          C39   1.344       .  A
N36          C37   1.348       .  A
C37          C38   1.384       .  A
C37          H40   1.082       .  S
C38          C39   1.379       .  A
C38         C449   1.468       .  S
C39          H41   1.082       .  S
N42          N43   1.324       .  A
N42          C46   1.348       .  A
N43          C44   1.346       .  A
C44          C45   1.382       .  A
C44          H47   1.082       .  S
C45          C46   1.384       .  A
C45          C77   1.470   1_545  S
C46          H48   1.082       .  S
N49          N50   1.323       .  A
N49          C53   1.350       .  A
N49         Cu57   2.094   1_455  S
N50          C51   1.346       .  A
N50         Cu56   2.077       .  S
C51          C52   1.382       .  A
C51          H54   1.082       .  S
C52          C53   1.386       .  A
C52         C187   1.475       .  S
C53          H55   1.082       .  S
Cu56         N59   2.077       .  S
Cu57         N67   2.095       .  S
Cu58         N60   2.087       .  S
Cu58         N66   2.088   1_455  S
N59          N60   1.323       .  A
N59          C63   1.345       .  A
N60          C61   1.349       .  A
C61          C62   1.385       .  A
C61          H64   1.082       .  S
C62          C63   1.381       .  A
C62         C345   1.472       .  S
C63          H65   1.082       .  S
N66          N67   1.325       .  A
N66          C70   1.347       .  A
N67          C68   1.350       .  A
C68          C69   1.384       .  A
C68          H71   1.082       .  S
C69          C70   1.383       .  A
C69          C73   1.473       .  S
C70          H72   1.082       .  S
C73          N74   1.361       .  A
C73          N78   1.360       .  A
N74          C75   1.361       .  A
C75          N76   1.359       .  A
N76          C77   1.359       .  A
C77          N78   1.360       .  A
N79          N80   1.320       .  A
N79          C83   1.349       .  A
N79         Cu87   2.089       .  S
N80          C81   1.342       .  A
N80         Cu86   2.061       .  S
C81          C82   1.386       .  A
C81          H84   1.081       .  S
C82          C83   1.393       .  A
C82         C966   1.490       .  S
C83          H85   1.081       .  S
Cu86         N89   2.060       .  S
Cu87         N97   2.091       .  S
Cu88         N90   2.094       .  S
Cu88         N96   2.095       .  S
N89          N90   1.322       .  A
N89          C93   1.341       .  A
N90          C91   1.350       .  A
C91          C92   1.391       .  A
C91          H94   1.082       .  S
C92          C93   1.381       .  A
C92         C946   1.481       .  S
C93          H95   1.082       .  S
N96          N97   1.325       .  A
N96         C100   1.349       .  A
N97          C98   1.347       .  A
C98          C99   1.383       .  A
C98         H101   1.082       .  S
C99         C100   1.384       .  A
C99         C274   1.475       .  S
C100        H102   1.082       .  S
N103        N104   1.319       .  A
N103        C107   1.353       .  A
N103       Cu111   2.095       .  S
N104        C105   1.338       .  A
N104       Cu110   2.051       .  S
C105        C106   1.383       .  A
C105        H108   1.081       .  S
C106        C107   1.395       .  A
C106        C917   1.489       .  S
C107        H109   1.082       .  S
Cu110       N113   2.051       .  S
Cu111       N121   2.097       .  S
Cu112       N114   2.079       .  S
Cu112       N120   2.082       .  S
N113        N114   1.317       .  A
N113        C117   1.338       .  A
N114        C115   1.350       .  A
C115        C116   1.394       .  A
C115        H118   1.081       .  S
C116        C117   1.385       .  A
C116        C906   1.486       .  S
C117        H119   1.081       .  S
N120        N121   1.328       .  A
N120        C124   1.345       .  A
N121        C122   1.348       .  A
C122        C123   1.382       .  A
C122        H125   1.082       .  S
C123        C124   1.378       .  A
C124        H126   1.082       .  S
N127        N128   1.319       .  A
N127        C131   1.353       .  A
N127       Cu135   2.095       .  S
N128        C129   1.337       .  A
N128       Cu134   2.049       .  S
C129        C130   1.384       .  A
C129        H132   1.080       .  S
C130        C131   1.397       .  A
C130        C866   1.491       .  S
C131        H133   1.081       .  S
Cu134       N137   2.050       .  S
Cu135       N145   2.098       .  S
Cu136       N138   2.087       .  S
Cu136       N144   2.090       .  S
N137        N138   1.318       .  A
N137        C141   1.338       .  A
N138        C139   1.350       .  A
C139        C140   1.394       .  A
C139        H142   1.081       .  S
C140        C141   1.385       .  A
C140        C886   1.489       .  S
C141        H143   1.081       .  S
N144        N145   1.327       .  A
N144        C148   1.347       .  A
N145        C146   1.348       .  A
C146        C147   1.383       .  A
C146        H149   1.082       .  S
C147        C148   1.381       .  A
C147        C304   1.473       .  S
C148        H150   1.082       .  S
C151        C152   1.412       .  A
C151        C156   1.404   1_556  A
C151        C937   1.484       .  S
C152        C153   1.401   1_556  A
C152        C857   1.483       .  S
C153        C154   1.406       .  A
C153        H158   1.085       .  S
C154        C155   1.421       .  A
C154        C837   1.489       .  S
C155        C156   1.410       .  A
C155        C926   1.490       .  S
C156        H157   1.084       .  S
C159        C160   1.416       .  A
C159        C164   1.403   1_554  A
C159        C797   1.485       .  S
C160        C161   1.405   1_554  A
C160        C897   1.481       .  S
C161        C162   1.403       .  A
C161        H166   1.085       .  S
C162        C163   1.412       .  A
C162        C826   1.481       .  S
C163        C164   1.402       .  A
C163        C877   1.477       .  S
C164        H165   1.085       .  S
N167        N168   1.322       .  A
N167        C171   1.352       .  A
N167       Cu175   2.098       .  S
N168        C169   1.341       .  A
N168       Cu174   2.060       .  S
C169        C170   1.380       .  A
C169        H172   1.082       .  S
C170        C171   1.391       .  A
C170        C786   1.481       .  S
C171        H173   1.082       .  S
Cu174       N177   2.061       .  S
Cu175       N185   2.099       .  S
Cu176       N178   2.087       .  S
Cu176       N184   2.089       .  S
N177        N178   1.319       .  A
N177        C181   1.341       .  A
N178        C179   1.350       .  A
C179        C180   1.394       .  A
C179        H182   1.081   1_455  S
C180        C181   1.387       .  A
C180        C846   1.491       .  S
C181        H183   1.081       .  S
N184        N185   1.326       .  A
N184        C188   1.346       .  A
N185        C186   1.350       .  A
C186        C187   1.385       .  A
C186        H189   1.082       .  S
C187        C188   1.382       .  A
C188        H190   1.082       .  S
N191        N192   1.319       .  A
N191        C195   1.348       .  A
N191       Cu199   2.086       .  S
N192        C193   1.343       .  A
N192       Cu198   2.061       .  S
C193        C194   1.386       .  A
C193        H196   1.081       .  S
C194        C195   1.392       .  A
C194        C757   1.487       .  S
C195        H197   1.082       .  S
Cu198       N201   2.060       .  S
Cu199       N209   2.088       .  S
Cu200       N202   2.092       .  S
Cu200       N208   2.093       .  S
N201        N202   1.321       .  A
N201        C205   1.340       .  A
N202        C203   1.351       .  A
C203        C204   1.391       .  A
C203        H206   1.082       .  S
C204        C205   1.382       .  A
C204        C817   1.483       .  S
C205        H207   1.082       .  S
N208        N209   1.326       .  A
N208        C212   1.348       .  A
N209        C210   1.347       .  A
C210        C211   1.382       .  A
C210        H213   1.082       .  S
C211        C212   1.383       .  A
C211        C260   1.471       .  S
C212        H214   1.082       .  S
N215        N216   1.318       .  A
N215        C219   1.349       .  A
N215       Cu223   2.088       .  S
N216        C217   1.340       .  A
N216       Cu222   2.051       .  S
C217        C218   1.385       .  A
C217        H220   1.081       .  S
C218        C219   1.394       .  A
C218        C737   1.489       .  S
C219        H221   1.081       .  S
Cu222       N225   2.052       .  S
Cu223       N233   2.091       .  S
Cu224       N226   2.087       .  S
Cu224       N232   2.089       .  S
N225        N226   1.321       .  A
N225        C229   1.338       .  A
N226        C227   1.351       .  A
C227        C228   1.390       .  A
C227        H230   1.082       .  S
C228        C229   1.379       .  A
C228        C806   1.477       .  S
C229        H231   1.082       .  S
N232        N233   1.326       .  A
N232        C236   1.347       .  A
N233        C234   1.346       .  A
C234        C235   1.382       .  A
C234        H237   1.082       .  S
C235        C236   1.382       .  A
C236        H238   1.082       .  S
C239        C240   1.416       .  A
C239        C244   1.405   1_556  A
C239        C766   1.488       .  S
C240        C241   1.404   1_556  A
C240        C957   1.488       .  S
C241        C242   1.407       .  A
C241        H246   1.085       .  S
C242        C243   1.420       .  A
C242        C746   1.487       .  S
C243        C244   1.407       .  A
C243        C777   1.494       .  S
C244        H245   1.084       .  S
N247        N248   1.324       .  A
N247        C251   1.350       .  A
N247       Cu255   2.093       .  S
N248        C249   1.344       .  A
N248       Cu254   2.074       .  S
C249        C250   1.380       .  A
C249        H252   1.082       .  S
C250        C251   1.385       .  A
C250        C393   1.472       .  S
C251        H253   1.082       .  S
Cu254       N257   2.074       .  S
Cu255       N265   2.093       .  S
Cu256       N258   2.085       .  S
Cu256       N264   2.086       .  S
N257        N258   1.322       .  A
N257        C261   1.346       .  A
N258        C259   1.349       .  A
C259        C260   1.385       .  A
C259        H262   1.082       .  S
C260        C261   1.382       .  A
C261        H263   1.082       .  S
N264        N265   1.324       .  A
N264        C268   1.347       .  A
N265        C266   1.349       .  A
C266        C267   1.384       .  A
C266        H269   1.082       .  S
C267        C268   1.382       .  A
C267        C299   1.472   1_445  S
C268        H270   1.082   1_545  S
N271        N272   1.323       .  A
N271        C275   1.351       .  A
N271       Cu279   2.096       .  S
N272        C273   1.346       .  A
N272       Cu278   2.078       .  S
C273        C274   1.381       .  A
C273        H276   1.082       .  S
C274        C275   1.387       .  A
C275        H277   1.082       .  S
Cu278       N281   2.078       .  S
Cu279       N289   2.097       .  S
Cu280       N282   2.092       .  S
Cu280       N288   2.093       .  S
N281        N282   1.323       .  A
N281        C285   1.345       .  A
N282        C283   1.350       .  A
C283        C284   1.386       .  A
C283        H286   1.082       .  S
C284        C285   1.382       .  A
C284        C369   1.474       .  S
C285        H287   1.082       .  S
N288        N289   1.325       .  A
N288        C292   1.350       .  A
N289        C290   1.349   1_545  A
C290        C291   1.384       .  A
C290        H293   1.082       .  S
C291        C292   1.384   1_565  A
C291        C295   1.475       .  S
C292        H294   1.082       .  S
C295        N296   1.363       .  A
C295        N300   1.361       .  A
N296        C297   1.362       .  A
C297        N298   1.359       .  A
C297        C321   1.475       .  S
N298        C299   1.359       .  A
C299        N300   1.360       .  A
N301        N302   1.324       .  A
N301        C305   1.348       .  A
N301       Cu309   2.090       .  S
N302        C303   1.346       .  A
N302       Cu308   2.080       .  S
C303        C304   1.382       .  A
C303        H306   1.082       .  S
C304        C305   1.385       .  A
C305        H307   1.082       .  S
Cu308       N311   2.081       .  S
Cu309       N319   2.090       .  S
Cu310       N312   2.089       .  S
Cu310       N318   2.090       .  S
N311        N312   1.324       .  A
N311        C315   1.347       .  A
N312        C313   1.347       .  A
C313        C314   1.384       .  A
C313        H316   1.082       .  S
C314        C315   1.383       .  A
C314        C473   1.474       .  S
C315        H317   1.082       .  S
N318        N319   1.323       .  A
N318        C322   1.349       .  A
N319        C320   1.349       .  A
C320        C321   1.385       .  A
C320        H323   1.082       .  S
C321        C322   1.385       .  A
C322        H324   1.082       .  S
N325        N326   1.318       .  A
N325        C329   1.350       .  A
N325       Cu333   2.089       .  S
N326        C327   1.341       .  A
N326       Cu332   2.058       .  S
C327        C328   1.386       .  A
C327        H330   1.081       .  S
C328        C329   1.395       .  A
C328        C726   1.490       .  S
C329        H331   1.081       .  S
Cu332       N335   2.057       .  S
Cu333       N343   2.091       .  S
Cu334       N336   2.089       .  S
Cu334       N342   2.090       .  S
N335        N336   1.321       .  A
N335        C339   1.338       .  A
N336        C337   1.351       .  A
C337        C338   1.390       .  A
C337        H340   1.082       .  S
C338        C339   1.381       .  A
C338        C697   1.480       .  S
C339        H341   1.082       .  S
N342        N343   1.326       .  A
N342        C346   1.348       .  A
N343        C344   1.346       .  A
C344        C345   1.382       .  A
C344        H347   1.082       .  S
C345        C346   1.383       .  A
C346        H348   1.082       .  S
N349        N350   1.320       .  A
N349        C353   1.350       .  A
N349       Cu357   2.088       .  S
N350        C351   1.341       .  A
N350       Cu356   2.058       .  S
C351        C352   1.384       .  A
C351        H354   1.082       .  S
C352        C353   1.391       .  A
C352        C677   1.484       .  S
C353        H355   1.082       .  S
Cu356       N359   2.058       .  S
Cu357       N367   2.091       .  S
Cu358       N360   2.093       .  S
Cu358       N366   2.094       .  S
N359        N360   1.321       .  A
N359        C363   1.339       .  A
N360        C361   1.351       .  A
C361        C362   1.393       .  A
C361        H364   1.081       .  S
C362        C363   1.384       .  A
C362        C657   1.487       .  S
C363        H365   1.081       .  S
N366        N367   1.326       .  A
N366        C370   1.349       .  A
N367        C368   1.346       .  A
C368        C369   1.383       .  A
C368        H371   1.082       .  S
C369        C370   1.384       .  A
C370        H372   1.082       .  S
N373        N374   1.318       .  A
N373        C377   1.350       .  A
N373       Cu381   2.084       .  S
N374        C375   1.339       .  A
N374       Cu380   2.049       .  S
C375        C376   1.384       .  A
C375        H378   1.081       .  S
C376        C377   1.394       .  A
C376        C637   1.486       .  S
C377        H379   1.081       .  S
Cu380       N383   2.049       .  S
Cu381       N391   2.088       .  S
Cu382       N384   2.096       .  S
Cu382       N390   2.098       .  S
N383        N384   1.320       .  A
N383        C387   1.337       .  A
N384        C385   1.353       .  A
C385        C386   1.394       .  A
C385        H388   1.082       .  S
C386        C387   1.381       .  A
C386        C617   1.484       .  S
C387        H389   1.081       .  S
N390        N391   1.327       .  A
N390        C394   1.349       .  A
N391        C392   1.345       .  A
C392        C393   1.380       .  A
C392        H395   1.082       .  S
C393        C394   1.383       .  A
C394        H396   1.082       .  S
N397        N398   1.319       .  A
N397        C401   1.349       .  A
N397       Cu405   2.088       .  S
N398        C399   1.341       .  A
N398       Cu404   2.057       .  S
C399        C400   1.386       .  A
C399        H402   1.081       .  S
C400        C401   1.393       .  A
C400        C577   1.489       .  S
C401        H403   1.081       .  S
Cu404       N407   2.057       .  S
Cu405       N415   2.091       .  S
Cu406       N408   2.080       .  S
Cu406       N414   2.082       .  S
N407        N408   1.320       .  A
N407        C411   1.338       .  A
N408        C409   1.349       .  A
C409        C410   1.391       .  A
C409        H412   1.082       .  S
C410        C411   1.384       .  A
C410        C606   1.483       .  S
C411        H413   1.081       .  S
N414        N415   1.325       .  A
N414        C418   1.346       .  A
N415        C416   1.347       .  A
C416        C417   1.383       .  A
C416        H419   1.082       .  S
C417        C418   1.381       .  A
C418        H420   1.082       .  S
C421        C422   1.416       .  A
C421        C426   1.402       .  A
C421        C706   1.482       .  S
C422        C423   1.405       .  A
C422        C586   1.484       .  S
C423        C424   1.404       .  A
C423        H428   1.084       .  S
C424        C425   1.415       .  A
C424        C686   1.486       .  S
C425        C426   1.404       .  A
C425        C646   1.482   1_565  S
C426        H427   1.085       .  S
N429        N430   1.321       .  A
N429        C433   1.348       .  A
N429       Cu437   2.078       .  S
N430        C431   1.341       .  A
N430       Cu436   2.056       .  S
C431        C432   1.381       .  A
C431        H434   1.082       .  S
C432        C433   1.387       .  A
C432        C546   1.475       .  S
C433        H435   1.082       .  S
Cu436       N439   2.055       .  S
Cu437       N447   2.079       .  S
Cu438       N440   2.085       .  S
Cu438       N446   2.087       .  S
N439        N440   1.319       .  A
N439        C443   1.340       .  A
N440        C441   1.349       .  A
C441        C442   1.393       .  A
C441        H444   1.082       .  S
C442        C443   1.384       .  A
C442        C557   1.486       .  S
C443        H445   1.081       .  S
N446        N447   1.325       .  A
N446        C450   1.345       .  A
N447        C448   1.347       .  A
C448        C449   1.381       .  A
C448        H451   1.082       .  S
C449        C450   1.382       .  A
C450        H452   1.082       .  S
N453        N454   1.319       .  A
N453        C457   1.350       .  A
N453       Cu461   2.089       .  S
N454        C455   1.341       .  A
N454       Cu460   2.063       .  S
C455        C456   1.387       .  A
C455        H458   1.081       .  S
C456        C457   1.393       .  A
C456        C497   1.491       .  S
C457        H459   1.082       .  S
Cu460       N463   2.061       .  S
Cu461       N471   2.092       .  S
Cu462       N464   2.089       .  S
Cu462       N470   2.090       .  S
N463        N464   1.320       .  A
N463        C467   1.339       .  A
N464        C465   1.350       .  A
C465        C466   1.394       .  A
C465        H468   1.081       .  S
C466        C467   1.386       .  A
C466        C517   1.490       .  S
C467        H469   1.080       .  S
N470        N471   1.326       .  A
N470        C474   1.347       .  A
N471        C472   1.348       .  A
C472        C473   1.383       .  A
C472        H475   1.082       .  S
C473        C474   1.382       .  A
C474        H476   1.082       .  S
C477        C478   1.414       .  A
C477        C482   1.408       .  A
C477        C717   1.484       .  S
C478        C479   1.401       .  A
C478        C537   1.481       .  S
C479        C480   1.401       .  A
C479        H484   1.085       .  S
C480        C481   1.415       .  A
C480        C666   1.479       .  S
C481        C482   1.408       .  A
C481        C506   1.489       .  S
C482        H483   1.084       .  S
C485        C486   1.417       .  A
C485        C490   1.406       .  A
C485        C626   1.488       .  S
C486        C487   1.403       .  A
C486        C526   1.484       .  S
C487        C488   1.402       .  A
C487        H492   1.085       .  S
C488        C489   1.415       .  A
C488        C597   1.480       .  S
C489        C490   1.407       .  A
C489        C566   1.488       .  S
C490        H491   1.084       .  S
C493        C494   1.406       .  A
C493        C498   1.395       .  A
C493        H503   1.082       .  S
C494        C495   1.409       .  A
C494        C499   1.496       .  S
C495        C496   1.405       .  A
C495        H500   1.082       .  S
C496        C497   1.407       .  A
C496        H501   1.082       .  S
C497        C498   1.406       .  A
C498        H502   1.081       .  S
C499        C504   1.408       .  A
C499        C508   1.409       .  A
C504        C505   1.396       .  A
C504        H509   1.082       .  S
C505        C506   1.403       .  A
C505        H510   1.083       .  S
C506        C507   1.405       .  A
C507        C508   1.404       .  A
C507        H511   1.083       .  S
C508        H512   1.082       .  S
C513        C514   1.405       .  A
C513        C518   1.405       .  A
C513        H523   1.083       .  S
C514        C515   1.401       .  A
C514        C519   1.482       .  S
C515        C516   1.393       .  A
C515        H520   1.083       .  S
C516        C517   1.408       .  A
C516        H521   1.080       .  S
C517        C518   1.409       .  A
C518        H522   1.082       .  S
C519        C524   1.406       .  A
C519        C528   1.404       .  A
C524        C525   1.403       .  A
C524        H529   1.083       .  S
C525        C526   1.406       .  A
C525        H530   1.083       .  S
C526        C527   1.403       .  A
C527        C528   1.393       .  A
C527        H531   1.083       .  S
C528        H532   1.083       .  S
C533        C534   1.407       .  A
C533        C538   1.400       .  A
C533        H543   1.083       .  S
C534        C535   1.408   1_655  A
C534        C539   1.488   1_655  S
C535        C536   1.395   1_455  A
C535        H540   1.082       .  S
C536        C537   1.401       .  A
C536        H541   1.083   1_655  S
C537        C538   1.404       .  A
C538        H542   1.083       .  S
C539        C544   1.409   1_455  A
C539        C548   1.406       .  A
C544        C545   1.401   1_655  A
C544        H549   1.082       .  S
C545        C546   1.404       .  A
C545        H550   1.083   1_455  S
C546        C547   1.402       .  A
C547        C548   1.394       .  A
C547        H551   1.083       .  S
C548        H552   1.083       .  S
C553        C554   1.408       .  A
C553        C558   1.401       .  A
C553        H563   1.083       .  S
C554        C555   1.404       .  A
C554        C559   1.488       .  S
C555        C556   1.395       .  A
C555        H560   1.083       .  S
C556        C557   1.407       .  A
C556        H561   1.081       .  S
C557        C558   1.405       .  A
C558        H562   1.082       .  S
C559        C564   1.405       .  A
C559        C568   1.409       .  A
C564        C565   1.396       .  A
C564        H569   1.083       .  S
C565        C566   1.405       .  A
C565        H570   1.083       .  S
C566        C567   1.405       .  A
C567        C568   1.400       .  A
C567        H571   1.082       .  S
C568        H572   1.083       .  S
C573        C574   1.406       .  A
C573        C578   1.402       .  A
C573        H583   1.083       .  S
C574        C575   1.403       .  A
C574        C579   1.486       .  S
C575        C576   1.396       .  A
C575        H580   1.083       .  S
C576        C577   1.407       .  A
C576        H581   1.081       .  S
C577        C578   1.407       .  A
C578        H582   1.082       .  S
C579        C584   1.407       .  A
C579        C588   1.406       .  A
C584        C585   1.397       .  A
C584        H589   1.083       .  S
C585        C586   1.402       .  A
C585        H590   1.083       .  S
C586        C587   1.405       .  A
C587        C588   1.401       .  A
C587        H591   1.083       .  S
C588        H592   1.083       .  S
C593        C594   1.404       .  A
C593        C598   1.392       .  A
C593        H603   1.083       .  S
C594        C595   1.406       .  A
C594        C599   1.480       .  S
C595        C596   1.403       .  A
C595        H600   1.083       .  S
C596        C597   1.406       .  A
C596        H601   1.083       .  S
C597        C598   1.401       .  A
C598        H602   1.083       .  S
C599        C604   1.401       .  A
C599        C608   1.405       .  A
C604        C605   1.390       .  A
C604        H609   1.083       .  S
C605        C606   1.406       .  A
C605        H610   1.081       .  S
C606        C607   1.408       .  A
C607        C608   1.404       .  A
C607        H611   1.082       .  S
C608        H612   1.083       .  S
C613        C614   1.410       .  A
C613        C618   1.406       .  A
C613        H623   1.082       .  S
C614        C615   1.404       .  A
C614        C619   1.490       .  S
C615        C616   1.391       .  A
C615        H620   1.083       .  S
C616        C617   1.405       .  A
C616        H621   1.082       .  S
C617        C618   1.406       .  A
C618        H622   1.083       .  S
C619        C624   1.406       .  A
C619        C628   1.408       .  A
C624        C625   1.401       .  A
C624        H629   1.083       .  S
C625        C626   1.407       .  A
C625        H630   1.083       .  S
C626        C627   1.402       .  A
C627        C628   1.395       .  A
C627        H631   1.083       .  S
C628        H632   1.083       .  S
C633        C634   1.405       .  A
C633        C638   1.402       .  A
C633        H643   1.083   1_545  S
C634        C635   1.402       .  A
C634        C639   1.481       .  S
C635        C636   1.395       .  A
C635        H640   1.083       .  S
C636        C637   1.408       .  A
C636        H641   1.081       .  S
C637        C638   1.407       .  A
C638        H642   1.082       .  S
C639        C644   1.404       .  A
C639        C648   1.406       .  A
C644        C645   1.399   1_545  A
C644        H649   1.083   1_545  S
C645        C646   1.405   1_565  A
C645        H650   1.083       .  S
C646        C647   1.402       .  A
C647        C648   1.396       .  A
C647        H651   1.083       .  S
C648        H652   1.083       .  S
C653        C654   1.399       .  A
C653        C658   1.394       .  A
C653        H663   1.084       .  S
C654        C655   1.404       .  A
C654        C659   1.476       .  S
C655        C656   1.404       .  A
C655        H660   1.083       .  S
C656        C657   1.408       .  A
C656        H661   1.082       .  S
C657        C658   1.407       .  A
C658        H662   1.082       .  S
C659        C664   1.403       .  A
C659        C668   1.404       .  A
C664        C665   1.395       .  A
C664        H669   1.083       .  S
C665        C666   1.401       .  A
C665        H670   1.083       .  S
C666        C667   1.405       .  A
C667        C668   1.402       .  A
C667        H671   1.083       .  S
C668        H672   1.083       .  S
C673        C674   1.407       .  A
C673        C678   1.395       .  A
C673        H683   1.082       .  S
C674        C675   1.410       .  A
C674        C679   1.494       .  S
C675        C676   1.404       .  A
C675        H680   1.082   1_545  S
C676        C677   1.404       .  A
C676        H681   1.083       .  S
C677        C678   1.404       .  A
C678        H682   1.082       .  S
C679        C684   1.409       .  A
C679        C688   1.409   1_545  A
C684        C685   1.396       .  A
C684        H689   1.082       .  S
C685        C686   1.402   1_545  A
C685        H690   1.083       .  S
C686        C687   1.404       .  A
C687        C688   1.402       .  A
C687        H691   1.083       .  S
C688        H692   1.082       .  S
C693        C694   1.408       .  A
C693        C698   1.404       .  A
C693        H703   1.083       .  S
C694        C695   1.403       .  A
C694        C699   1.486       .  S
C695        C696   1.392       .  A
C695        H700   1.083       .  S
C696        C697   1.403       .  A
C696        H701   1.083       .  S
C697        C698   1.405       .  A
C698        H702   1.083       .  S
C699        C704   1.406       .  A
C699        C708   1.407       .  A
C704        C705   1.402       .  A
C704        H709   1.083       .  S
C705        C706   1.405       .  A
C705        H710   1.083   1_565  S
C706        C707   1.401       .  A
C707        C708   1.394       .  A
C707        H711   1.083       .  S
C708        H712   1.083       .  S
C713        C714   1.407       .  A
C713        C718   1.402       .  A
C713        H723   1.083       .  S
C714        C715   1.408   1_655  A
C714        C719   1.489   1_655  S
C715        C716   1.399       .  A
C715        H720   1.083       .  S
C716        C717   1.401   1_455  A
C716        H721   1.083       .  S
C717        C718   1.405       .  A
C718        H722   1.083       .  S
C719        C724   1.403       .  A
C719        C728   1.407   1_455  A
C724        C725   1.397       .  A
C724        H729   1.083       .  S
C725        C726   1.408       .  A
C725        H730   1.081       .  S
C726        C727   1.407   1_455  A
C727        C728   1.404       .  A
C727        H731   1.082       .  S
C728        H732   1.083       .  S
C733        C734   1.407       .  A
C733        C738   1.402       .  A
C733        H743   1.083       .  S
C734        C735   1.403       .  A
C734        C739   1.488       .  S
C735        C736   1.395       .  A
C735        H740   1.083       .  S
C736        C737   1.408       .  A
C736        H741   1.080       .  S
C737        C738   1.406       .  A
C738        H742   1.082       .  S
C739        C744   1.405       .  A
C739        C748   1.408       .  A
C744        C745   1.398       .  A
C744        H749   1.083       .  S
C745        C746   1.405       .  A
C745        H750   1.083       .  S
C746        C747   1.404       .  A
C747        C748   1.400       .  A
C747        H751   1.083       .  S
C748        H752   1.083       .  S
C753        C754   1.408       .  A
C753        C758   1.401       .  A
C753        H763   1.082   1_545  S
C754        C755   1.407       .  A
C754        C759   1.493       .  S
C755        C756   1.398       .  A
C755        H760   1.082       .  S
C756        C757   1.407       .  A
C756        H761   1.082       .  S
C757        C758   1.405       .  A
C758        H762   1.082       .  S
C759        C764   1.408   1_545  A
C759        C768   1.409       .  A
C764        C765   1.398       .  A
C764        H769   1.082       .  S
C765        C766   1.404       .  A
C765        H770   1.083       .  S
C766        C767   1.404   1_565  A
C767        C768   1.399       .  A
C767        H771   1.083       .  S
C768        H772   1.082       .  S
C773        C774   1.403       .  A
C773        C778   1.400       .  A
C773        H783   1.083       .  S
C774        C775   1.402       .  A
C774        C779   1.479       .  S
C775        C776   1.399       .  A
C775        H780   1.083       .  S
C776        C777   1.408       .  A
C776        H781   1.083       .  S
C777        C778   1.407       .  A
C778        H782   1.082       .  S
C779        C784   1.401       .  A
C779        C788   1.406       .  A
C784        C785   1.397       .  A
C784        H789   1.083       .  S
C785        C786   1.406       .  A
C785        H790   1.083       .  S
C786        C787   1.405       .  A
C787        C788   1.403       .  A
C787        H791   1.083       .  S
C788        H792   1.083       .  S
C793        C794   1.406       .  A
C793        C798   1.394       .  A
C793        H803   1.083       .  S
C794        C795   1.405       .  A
C794        C799   1.484       .  S
C795        C796   1.401       .  A
C795        H800   1.083       .  S
C796        C797   1.406       .  A
C796        H801   1.083       .  S
C797        C798   1.403       .  A
C798        H802   1.083       .  S
C799        C804   1.403       .  A
C799        C808   1.408       .  A
C804        C805   1.392       .  A
C804        H809   1.083       .  S
C805        C806   1.403       .  A
C805        H810   1.083       .  S
C806        C807   1.404       .  A
C807        C808   1.404       .  A
C807        H811   1.083       .  S
C808        H812   1.083       .  S
C813        C814   1.406       .  A
C813        C818   1.395       .  A
C813        H823   1.083       .  S
C814        C815   1.410       .  A
C814        C819   1.493       .  S
C815        C816   1.403       .  A
C815        H820   1.082       .  S
C816        C817   1.405       .  A
C816        H821   1.083       .  S
C817        C818   1.404       .  A
C818        H822   1.083       .  S
C819        C824   1.409       .  A
C819        C828   1.408       .  A
C824        C825   1.397       .  A
C824        H829   1.082       .  S
C825        C826   1.401       .  A
C825        H830   1.083       .  S
C826        C827   1.403       .  A
C827        C828   1.401       .  A
C827        H831   1.083       .  S
C828        H832   1.082       .  S
C833        C834   1.405       .  A
C833        C838   1.394       .  A
C833        H843   1.083   1_655  S
C834        C835   1.408       .  A
C834        C839   1.488       .  S
C835        C836   1.405       .  A
C835        H840   1.083       .  S
C836        C837   1.406       .  A
C836        H841   1.083       .  S
C837        C838   1.405       .  A
C838        H842   1.083       .  S
C839        C844   1.403   1_655  A
C839        C848   1.406       .  A
C844        C845   1.395       .  A
C844        H849   1.083       .  S
C845        C846   1.408       .  A
C845        H850   1.080       .  S
C846        C847   1.408   1_455  A
C847        C848   1.405       .  A
C847        H851   1.082       .  S
C848        H852   1.083       .  S
C853        C854   1.405       .  A
C853        C858   1.402       .  A
C853        H863   1.083       .  S
C854        C855   1.407       .  A
C854        C859   1.485       .  S
C855        C856   1.396       .  A
C855        H860   1.083       .  S
C856        C857   1.401       .  A
C856        H861   1.083       .  S
C857        C858   1.405       .  A
C858        H862   1.083       .  S
C859        C864   1.407       .  A
C859        C868   1.401       .  A
C864        C865   1.405       .  A
C864        H869   1.083       .  S
C865        C866   1.408       .  A
C865        H870   1.082       .  S
C866        C867   1.408       .  A
C867        C868   1.393       .  A
C867        H871   1.080       .  S
C868        H872   1.083       .  S
C873        C874   1.405       .  A
C873        C878   1.394       .  A
C873        H883   1.083       .  S
C874        C875   1.405       .  A
C874        C879   1.480       .  S
C875        C876   1.402       .  A
C875        H880   1.083       .  S
C876        C877   1.404       .  A
C876        H881   1.083       .  S
C877        C878   1.400       .  A
C878        H882   1.083       .  S
C879        C884   1.400       .  A
C879        C888   1.405       .  A
C884        C885   1.393       .  A
C884        H889   1.083       .  S
C885        C886   1.408       .  A
C885        H890   1.080       .  S
C886        C887   1.408       .  A
C887        C888   1.404       .  A
C887        H891   1.082       .  S
C888        H892   1.083       .  S
C893        C894   1.406       .  A
C893        C898   1.395       .  A
C893        H903   1.083       .  S
C894        C895   1.405       .  A
C894        C899   1.482       .  S
C895        C896   1.400       .  A
C895        H900   1.083       .  S
C896        C897   1.405       .  A
C896        H901   1.083       .  S
C897        C898   1.401       .  A
C898        H902   1.083       .  S
C899        C904   1.401       .  A
C899        C908   1.406       .  A
C904        C905   1.393       .  A
C904        H909   1.083       .  S
C905        C906   1.407       .  A
C905        H910   1.081       .  S
C906        C907   1.407       .  A
C907        C908   1.403       .  A
C907        H911   1.082       .  S
C908        H912   1.083       .  S
C913        C914   1.403       .  A
C913        C918   1.393       .  A
C913        H923   1.083       .  S
C914        C915   1.410   1_455  A
C914        C919   1.492   1_455  S
C915        C916   1.406   1_655  A
C915        H920   1.083       .  S
C916        C917   1.406       .  A
C916        H921   1.082   1_455  S
C917        C918   1.407       .  A
C918        H922   1.081       .  S
C919        C924   1.409   1_655  A
C919        C928   1.405       .  A
C924        C925   1.399   1_455  A
C924        H929   1.083       .  S
C925        C926   1.403       .  A
C925        H930   1.083   1_655  S
C926        C927   1.407       .  A
C927        C928   1.400       .  A
C927        H931   1.083       .  S
C928        H932   1.083       .  S
C933        C934   1.407       .  A
C933        C938   1.401       .  A
C933        H943   1.083       .  S
C934        C935   1.408       .  A
C934        C939   1.490       .  S
C935        C936   1.397       .  A
C935        H940   1.083       .  S
C936        C937   1.402       .  A
C936        H941   1.083       .  S
C937        C938   1.404       .  A
C938        H942   1.083       .  S
C939        C944   1.405       .  A
C939        C948   1.408       .  A
C944        C945   1.396       .  A
C944        H949   1.083       .  S
C945        C946   1.404       .  A
C945        H950   1.083       .  S
C946        C947   1.405       .  A
C947        C948   1.403       .  A
C947        H951   1.083       .  S
C948        H952   1.083       .  S
C953        C954   1.407       .  A
C953        C958   1.397       .  A
C953        H963   1.083       .  S
C954        C955   1.407   1_545  A
C954        C959   1.489       .  S
C955        C956   1.401       .  A
C955        H960   1.083       .  S
C956        C957   1.405       .  A
C956        H961   1.083       .  S
C957        C958   1.404   1_565  A
C958        H962   1.083       .  S
C959        C964   1.404       .  A
C959        C968   1.407       .  A
C964        C965   1.396       .  A
C964        H969   1.083       .  S
C965        C966   1.407       .  A
C965        H970   1.081       .  S
C966        C967   1.407       .  A
C967        C968   1.403       .  A
C967        H971   1.082       .  S
C968        H972   1.083   1_545  S
