geometry optimzed in LAMMPS
_audit_creation_date              2020-11-30 
_audit_creation_method            'lammps2cif' 
_symmetry_space_group_name_H-M    'P1' 
_symmetry_Int_Tables_number       1 
_symmetry_cell_setting            triclinic 
loop_ 
_symmetry_equiv_pos_as_xyz 
  x,y,z 
_cell_length_a                    51.232120914779294 
_cell_length_b                    51.2092818486975 
_cell_length_c                    51.20903547715515 
_cell_angle_alpha                 90.00277195447073 
_cell_angle_beta                  89.99500622813538 
_cell_angle_gamma                 89.99899808091199 
loop_ 
_atom_site_label 
_atom_site_type_symbol 
_atom_site_fract_x 
_atom_site_fract_y 
_atom_site_fract_z 
_atom_site_charge 
N1          N  0.50086570  0.79282548  0.63042617    -0.27400
N2          N  0.50075930  0.81824348  0.62626393    -0.35250
C3          C  0.50112644  0.82287470  0.60059135     0.00950
C4          C  0.50145671  0.79927505  0.58759815     0.06970
C5          C  0.50127515  0.78040498  0.60709981    -0.06130
H6          H  0.50106852  0.84217916  0.59198698     0.07640
H7          H  0.50140502  0.75943146  0.60456752     0.08840
Cu8        Cu  0.49992418  0.84600539  0.65520202     0.44170
Cu9        Cu  0.50044007  0.77899442  0.66860030     0.41990
Cu10       Cu  0.49955634  0.83169235  0.72194363     0.43880
N11         N  0.49900863  0.87452783  0.68338104    -0.34780
N12         N  0.49894414  0.87005905  0.70874369    -0.29040
C13         C  0.49843692  0.89323579  0.72145520    -0.05140
C14         C  0.49814465  0.91295496  0.70280733     0.07080
C15         C  0.49851782  0.90023677  0.67906342     0.00880
H16         H  0.49832776  0.89551743  0.74245858     0.08530
H17         H  0.49852601  0.90905959  0.65985797     0.07610
N18         N  0.49993095  0.79138053  0.72727091    -0.36230
N19         N  0.50019549  0.77312104  0.70886325    -0.28410
C20         C  0.50030631  0.74951067  0.72035358    -0.03650
C21         C  0.50010245  0.75304503  0.74707291     0.04960
C22         C  0.49986971  0.77972829  0.75077860     0.03050
H23         H  0.50051395  0.73113037  0.70993801     0.08160
H24         H  0.49964918  0.79002794  0.76922299     0.06990
N25         N  0.50087107  0.61616172  0.80711833    -0.27400
N26         N  0.50078144  0.61198902  0.83253474    -0.35250
C27         C  0.50117869  0.58631424  0.83715281     0.00950
C28         C  0.50151180  0.57333276  0.81354527     0.06970
C29         C  0.50129895  0.59284278  0.79468574    -0.06130
H30         H  0.50113934  0.57770005  0.85645310     0.07640
H31         H  0.50142156  0.59032135  0.77371076     0.08840
Cu32       Cu  0.49993547  0.64092264  0.86030547     0.44170
Cu33       Cu  0.50041024  0.65433631  0.79330136     0.41990
Cu34       Cu  0.49953515  0.70767986  0.84598847     0.43880
N35         N  0.49902241  0.66910916  0.88882421    -0.34780
N36         N  0.49894529  0.69447205  0.88435485    -0.29040
C37         C  0.49844191  0.70718360  0.90753200    -0.05140
C38         C  0.49816564  0.68853633  0.92725201     0.07080
C39         C  0.49854401  0.66479252  0.91453395     0.00880
H40         H  0.49832217  0.72818683  0.90981330     0.08530
H41         H  0.49856167  0.64558752  0.92335746     0.07610
N42         N  0.49990583  0.71300603  0.80567442    -0.36230
N43         N  0.50016681  0.69459390  0.78741972    -0.28410
C44         C  0.50028675  0.70607578  0.76380576    -0.03650
C45         C  0.50009311  0.73279536  0.76733119     0.04960
C46         C  0.49985575  0.73651014  0.79401424     0.03050
H47         H  0.50049758  0.69565386  0.74542897     0.08160
H48         H  0.49964379  0.75495790  0.80430777     0.06990
N49         N  0.80174393  0.61584761  0.50535947    -0.27400
N50         N  0.82712846  0.61153477  0.50533357    -0.35250
C51         C  0.83161143  0.58583125  0.50552047     0.00950
C52         C  0.80796317  0.57293361  0.50568235     0.06970
C53         C  0.78920456  0.59256490  0.50555907    -0.06130
H54         H  0.85086570  0.57713147  0.50557939     0.07640
H55         H  0.76822573  0.59014474  0.50565442     0.08840
Cu56       Cu  0.85509619  0.64031827  0.50528753     0.44170
Cu57       Cu  0.78821098  0.65421343  0.50530326     0.41990
Cu58       Cu  0.84107213  0.70730734  0.50567801     0.43880
N59         N  0.88376463  0.66839777  0.50572744    -0.34780
N60         N  0.87939245  0.69378419  0.50587808    -0.29040
C61         C  0.90262144  0.70639013  0.50624880    -0.05140
C62         C  0.92227944  0.68767538  0.50635221     0.07080
C63         C  0.90946595  0.66397991  0.50600912     0.00880
H64         H  0.90498457  0.72738268  0.50645376     0.08530
H65         H  0.91821784  0.64474326  0.50597579     0.07610
N66         N  0.80074478  0.71294845  0.50570370    -0.36230
N67         N  0.78245852  0.69457054  0.50557584    -0.28410
C68         C  0.75887963  0.70610973  0.50578314    -0.03650
C69         C  0.76241137  0.73284033  0.50605862     0.04960
C70         C  0.78911325  0.73649571  0.50599148     0.03050
H71         H  0.74049854  0.69571000  0.50578369     0.08160
H72         H  0.79942571  0.75493077  0.50619427     0.06990
N73         N  0.62482737  0.79143994  0.50737156    -0.27400
N74         N  0.62067498  0.81684536  0.50745713    -0.35250
C75         C  0.59506654  0.82158268  0.50751449     0.00950
C76         C  0.58200258  0.79806683  0.50746255     0.06970
C77         C  0.60144714  0.77909222  0.50737227    -0.06130
H78         H  0.58656271  0.84093120  0.50757146     0.07640
H79         H  0.59883491  0.75812869  0.50728995     0.08840
Cu80       Cu  0.64938581  0.84455767  0.50745229     0.44170
Cu81       Cu  0.66322083  0.77801266  0.50720629     0.41990
Cu82       Cu  0.71609659  0.83165612  0.50725579     0.43880
N83         N  0.67662028  0.87372017  0.50747176    -0.34780
N84         N  0.70206390  0.86986198  0.50741078    -0.29040
C85         C  0.71411771  0.89338403  0.50743367    -0.05140
C86         C  0.69493413  0.91261532  0.50751281     0.07080
C87         C  0.67157432  0.89930012  0.50753375     0.00880
H88         H  0.73504213  0.89624092  0.50738126     0.08530
H89         H  0.65214586  0.90760356  0.50758155     0.07610
N90         N  0.72188406  0.79127148  0.50695203    -0.36230
N91         N  0.70365409  0.77282035  0.50692552    -0.28410
C92         C  0.71537423  0.74932519  0.50661738    -0.03650
C93         C  0.74205784  0.75305955  0.50643979     0.04960
C94         C  0.74550727  0.77980205  0.50666589     0.03050
H95         H  0.70512224  0.73085648  0.50650861     0.08160
H96         H  0.76385965  0.79025433  0.50659621     0.06990
N97         N  0.80170185  0.49246248  0.62928093    -0.27400
N98         N  0.82708959  0.49245267  0.62496399    -0.35250
C99         C  0.83156926  0.49250248  0.59925642     0.00950
C100        C  0.80792339  0.49254856  0.58635300     0.06970
C101        C  0.78916572  0.49251688  0.60599171    -0.06130
H102        H  0.85082355  0.49251835  0.59055534     0.07640
H103        H  0.76818697  0.49254792  0.60357056     0.08840
Cu104      Cu  0.85510968  0.49244659  0.65371873     0.44170
Cu105      Cu  0.78811996  0.49246733  0.66765951     0.41990
Cu106      Cu  0.84100793  0.49258318  0.72067093     0.43880
N107        N  0.88377679  0.49258168  0.68182771    -0.34780
N108        N  0.87935572  0.49263146  0.70720675    -0.29040
C109        C  0.90255995  0.49274913  0.71986199    -0.05140
C110        C  0.92226334  0.49277965  0.70119343     0.07080
C111        C  0.90949483  0.49266936  0.67746582     0.00880
H112        H  0.90487705  0.49281866  0.74086045     0.08530
H113        H  0.91829039  0.49265894  0.65824850     0.07610
N114        N  0.80068764  0.49265265  0.72638859    -0.36230
N115        N  0.78236743  0.49261392  0.70804531    -0.28410
C116        C  0.75880869  0.49274365  0.71964377    -0.03650
C117        C  0.76239468  0.49287259  0.74637663     0.04960
C118        C  0.78910589  0.49280668  0.74996324     0.03050
H119        H  0.74040397  0.49276354  0.70928719     0.08160
H120        H  0.79946064  0.49288791  0.76837501     0.06990
N121        N  0.62493059  0.49337240  0.80539011    -0.27400
N122        N  0.62084973  0.49339989  0.83080615    -0.35250
C123        C  0.59525420  0.49335373  0.83562646     0.00950
C124        C  0.58211934  0.49329311  0.81215167     0.06970
C125        C  0.60151157  0.49330874  0.79311646    -0.06130
H126        H  0.58680872  0.49335433  0.85500123     0.07640
H127        H  0.59883631  0.49326504  0.77216090     0.08840
Cu128      Cu  0.64966677  0.49344892  0.85839049     0.44170
Cu129      Cu  0.66331193  0.49338188  0.79187878     0.41990
Cu130      Cu  0.71637393  0.49340270  0.84540234     0.43880
N131        N  0.67692870  0.49340386  0.88750849    -0.34780
N132        N  0.70237328  0.49338984  0.88365315    -0.29040
C133        C  0.71441103  0.49334199  0.90719042    -0.05140
C134        C  0.69520959  0.49332168  0.92641666     0.07080
C135        C  0.67186621  0.49336290  0.91308171     0.00880
H136        H  0.73533326  0.49331836  0.91006227     0.08530
H137        H  0.65242986  0.49336195  0.92136825     0.07610
N138        N  0.72203550  0.49330024  0.80496598    -0.36230
N139        N  0.70374691  0.49329048  0.78657055    -0.28410
C140        C  0.71539525  0.49315341  0.76303277    -0.03650
C141        C  0.74209367  0.49306982  0.76667087     0.04960
C142        C  0.74562316  0.49317080  0.79340968     0.03050
H143        H  0.70508387  0.49309588  0.74459724     0.08160
H144        H  0.76400999  0.49312777  0.80379990     0.06990
N145        N  0.79587486  0.87033429  0.00773334    -0.27400
N146        N  0.82124343  0.87471694  0.00772479    -0.35250
C147        C  0.82563131  0.90041582  0.00769638     0.00950
C148        C  0.80192820  0.91318996  0.00768421     0.06970
C149        C  0.78323551  0.89353961  0.00771107    -0.06130
H150        H  0.84485256  0.90918866  0.00767595     0.07640
H151        H  0.76224707  0.89588204  0.00770588     0.08840
Cu152      Cu  0.84935131  0.84612675  0.00770206     0.44170
Cu153      Cu  0.78245086  0.83209693  0.00774401     0.41990
Cu154      Cu  0.83563254  0.77931637  0.00767652     0.43880
N155        N  0.87814677  0.81822561  0.00757799    -0.34780
N156        N  0.87382856  0.79283825  0.00757301    -0.29040
C157        C  0.89704807  0.78024968  0.00746967    -0.05140
C158        C  0.91665435  0.79898772  0.00740016     0.07080
C159        C  0.90383588  0.82268190  0.00747405     0.00880
H160        H  0.89943289  0.75925844  0.00744423     0.08530
H161        H  0.91256820  0.84192721  0.00745744     0.07610
N162        N  0.79543771  0.77359224  0.00769552    -0.36230
N163        N  0.77703879  0.79184712  0.00771380    -0.28410
C164        C  0.75354339  0.78019291  0.00769223    -0.03650
C165        C  0.75729224  0.75352140  0.00765881     0.04960
C166        C  0.78398249  0.74999255  0.00766260     0.03050
H167        H  0.73509535  0.79047494  0.00769326     0.08160
H168        H  0.79441310  0.73162242  0.00763357     0.06990
N169        N  0.69880997  0.61635713  0.00719220    -0.27400
N170        N  0.67347733  0.61173117  0.00716267    -0.35250
C171        C  0.66940692  0.58596322  0.00695494     0.00950
C172        C  0.69327682  0.57342547  0.00684782     0.06970
C173        C  0.71171855  0.59329539  0.00701184    -0.06130
H174        H  0.65028909  0.57696654  0.00689672     0.07640
H175        H  0.73273236  0.59120070  0.00699863     0.08840
Cu176      Cu  0.64501885  0.64018339  0.00737444     0.44170
Cu177      Cu  0.71198610  0.65465748  0.00742506     0.41990
Cu178      Cu  0.65887210  0.70723506  0.00748840     0.43880
N179        N  0.61626138  0.66832820  0.00744578    -0.34780
N180        N  0.62068557  0.69370756  0.00746895    -0.29040
C181        C  0.59753212  0.70642588  0.00747032    -0.05140
C182        C  0.57781480  0.68781509  0.00744688     0.07080
C183        C  0.59052678  0.66403701  0.00743385     0.00880
H184        H  0.59526882  0.72743109  0.00748280     0.08530
H185        H  0.58167828  0.64484565  0.00740475     0.07610
N186        N  0.69903138  0.71311221  0.00753884    -0.36230
N187        N  0.71744019  0.69487560  0.00752864    -0.28410
C188        C  0.74092821  0.70653819  0.00757250    -0.03650
C189        C  0.73716331  0.73320739  0.00761212     0.04960
C190        C  0.71046827  0.73672216  0.00758947     0.03050
H191        H  0.75938046  0.69626369  0.00756938     0.08160
H192        H  0.70002623  0.75508565  0.00760610     0.06990
N193        N  0.79584212  0.99327341  0.88468154    -0.27400
N194        N  0.82121145  0.99326577  0.88906092    -0.35250
C195        C  0.82560127  0.99326752  0.91475949     0.00950
C196        C  0.80190011  0.99327589  0.92753914     0.06970
C197        C  0.78320543  0.99328003  0.90789053    -0.06130
H198        H  0.84482359  0.99325915  0.92352885     0.07640
H199        H  0.76221727  0.99328407  0.91023686     0.08840
Cu200      Cu  0.84932566  0.99323830  0.86047160     0.44170
Cu201      Cu  0.78241211  0.99326354  0.84644100     0.41990
Cu202      Cu  0.83560628  0.99321840  0.79366844     0.43880
N203        N  0.87812689  0.99319032  0.83257009    -0.34780
N204        N  0.87380762  0.99318547  0.80718309    -0.29040
C205        C  0.89702755  0.99314980  0.79459172    -0.05140
C206        C  0.91663631  0.99312972  0.81332693     0.07080
C207        C  0.90381709  0.99315676  0.83702300     0.00880
H208        H  0.89941123  0.99313821  0.77360009     0.08530
H209        H  0.91255019  0.99315378  0.85626757     0.07610
N210        N  0.79540987  0.99322001  0.78793455    -0.36230
N211        N  0.77700458  0.99323400  0.80618475    -0.28410
C212        C  0.75351269  0.99321616  0.79452194    -0.03650
C213        C  0.75727043  0.99318938  0.76784974     0.04960
C214        C  0.78396276  0.99319314  0.76433097     0.03050
H215        H  0.73506070  0.99321805  0.80479802     0.08160
H216        H  0.79440052  0.99317261  0.74596414     0.06990
N217        N  0.69883479  0.99295395  0.63064610    -0.27400
N218        N  0.67350262  0.99294488  0.62601731    -0.35250
C219        C  0.66943589  0.99288130  0.60024825     0.00950
C220        C  0.69330648  0.99284918  0.58770960     0.06970
C221        C  0.71174598  0.99289866  0.60758275    -0.06130
H222        H  0.65031880  0.99286707  0.59125096     0.07640
H223        H  0.73275999  0.99289846  0.60548882     0.08840
Cu224      Cu  0.64503204  0.99302369  0.65446173     0.44170
Cu225      Cu  0.71200405  0.99303721  0.66895507     0.41990
Cu226      Cu  0.65886598  0.99308605  0.72151310     0.43880
N227        N  0.61626122  0.99307353  0.68259675    -0.34780
N228        N  0.62067921  0.99308890  0.70797709    -0.29040
C229        C  0.59752185  0.99310738  0.72069050    -0.05140
C230        C  0.57780805  0.99310472  0.70207627     0.07080
C231        C  0.59052687  0.99308344  0.67830045     0.00880
H232        H  0.59525312  0.99312073  0.74169541     0.08530
H233        H  0.58168306  0.99307065  0.65910735     0.07610
N234        N  0.69902578  0.99310789  0.72741043    -0.36230
N235        N  0.71744368  0.99309509  0.70918122    -0.28410
C236        C  0.74092626  0.99312262  0.72085557    -0.03650
C237        C  0.73714924  0.99315424  0.74752482     0.04960
C238        C  0.71045150  0.99314376  0.75102623     0.03050
H239        H  0.75938368  0.99311909  0.71058926     0.08160
H240        H  0.70000011  0.99316163  0.76938518     0.06990
N241        N  0.99503112  0.79213683  0.88421471    -0.27400
N242        N  0.99514525  0.81753168  0.88850821    -0.35250
C243        C  0.99573913  0.82204154  0.91418866     0.00950
C244        C  0.99602392  0.79839252  0.92707788     0.06970
C245        C  0.99553938  0.77960323  0.90748788    -0.06130
H246        H  0.99596036  0.84131071  0.92287081     0.07640
H247        H  0.99558999  0.75861782  0.90992399     0.08840
Cu248      Cu  0.99476891  0.84549000  0.85977926     0.44170
Cu249      Cu  0.99451355  0.77861154  0.84591080     0.41990
Cu250      Cu  0.99451025  0.83172570  0.79292262     0.43880
N251        N  0.99513738  0.87428376  0.83188667    -0.34780
N252        N  0.99502281  0.87001724  0.80648785    -0.29040
C253        C  0.99552585  0.89330227  0.79397908    -0.05140
C254        C  0.99600653  0.91287491  0.81278672     0.07080
C255        C  0.99572580  0.89996241  0.83642467     0.00880
H256        H  0.99557569  0.89575891  0.77299594     0.08530
H257        H  0.99594710  0.90862674  0.85570188     0.07610
N258        N  0.99515674  0.79141284  0.78727263    -0.36230
N259        N  0.99515805  0.77305423  0.80558579    -0.28410
C260        C  0.99624038  0.74952181  0.79399259    -0.03650
C261        C  0.99698977  0.75317641  0.76729909     0.04960
C262        C  0.99623801  0.77987844  0.76371163     0.03050
H263        H  0.99669521  0.73110711  0.80433613     0.08160
H264        H  0.99669069  0.79026811  0.74532271     0.06990
N265        N  0.00270433  0.69408301  0.63012348    -0.27400
N266        N  0.00309587  0.66869951  0.62575184    -0.35250
C267        C  0.00306437  0.66429857  0.60003536     0.00950
C268        C  0.00262835  0.68799896  0.58721043     0.06970
C269        C  0.00242569  0.70670301  0.60688665    -0.06130
H270        H  0.00328206  0.64506489  0.59127557     0.07640
H271        H  0.00201424  0.72769396  0.60453310     0.08840
Cu272      Cu  0.00337078  0.64059620  0.65445834     0.44170
Cu273      Cu  0.00224307  0.70753887  0.66845699     0.41990
Cu274      Cu  0.00225933  0.65445803  0.72139561     0.43880
N275        N  0.00316499  0.61181407  0.68248521    -0.34780
N276        N  0.00276411  0.61614728  0.70787483    -0.29040
C277        C  0.00250565  0.59289349  0.72045950    -0.05140
C278        C  0.00273716  0.57324377  0.70172859     0.07080
C279        C  0.00316604  0.58610115  0.67804479     0.00880
H280        H  0.00208129  0.59050978  0.74144697     0.08530
H281        H  0.00338408  0.57736706  0.65879941     0.07610
N282        N  0.00097121  0.69475014  0.72707478    -0.36230
N283        N  0.00096752  0.71310968  0.70876464    -0.28410
C284        C  0.99961385  0.73663206  0.72035015    -0.03650
C285        C  0.99870032  0.73296882  0.74703794     0.04960
C286        C  0.99962005  0.70627171  0.75062898     0.03050
H287        H  0.99920005  0.75504858  0.71000815     0.08160
H288        H  0.99921290  0.69588009  0.76901792     0.06990
N289        N  0.50084135  0.19333081  0.63045603    -0.27400
N290        N  0.50074499  0.16790933  0.62631423    -0.35250
C291        C  0.50116492  0.16325037  0.60064633     0.00950
C292        C  0.50152094  0.18683585  0.58763264     0.06970
C293        C  0.50129775  0.20572637  0.60711828    -0.06130
H294        H  0.50112208  0.14393719  0.59205949     0.07640
H295        H  0.50142780  0.22669729  0.60456656     0.08840
Cu296      Cu  0.49985738  0.14018673  0.65527832     0.44170
Cu297      Cu  0.50035213  0.20719181  0.66862768     0.41990
Cu298      Cu  0.49942622  0.15452456  0.72201407     0.43880
N299        N  0.49892502  0.11167825  0.68346038    -0.34780
N300        N  0.49883740  0.11614793  0.70882307    -0.29040
C301        C  0.49834283  0.09296835  0.72153024    -0.05140
C302        C  0.49808321  0.07324951  0.70287729     0.07080
C303        C  0.49846126  0.08597066  0.67913770     0.00880
H304        H  0.49822390  0.09068432  0.74253309     0.08530
H305        H  0.49849569  0.07715068  0.65992999     0.07610
N306        N  0.49986513  0.19484536  0.72731371    -0.36230
N307        N  0.50014116  0.21309260  0.70889492    -0.28410
C308        C  0.50033723  0.23671054  0.72037402    -0.03650
C309        C  0.50018166  0.23319495  0.74709709     0.04960
C310        C  0.49988282  0.20651372  0.75081561     0.03050
H311        H  0.50058702  0.25508359  0.70994867     0.08160
H312        H  0.49968562  0.19622612  0.76926578     0.06990
N313        N  0.50115825  0.37012063  0.80710505    -0.27400
N314        N  0.50104843  0.37429889  0.83252116    -0.35250
C315        C  0.50139043  0.39997542  0.83713669     0.00950
C316        C  0.50170567  0.41295493  0.81352897     0.06970
C317        C  0.50154205  0.39343955  0.79467087    -0.06130
H318        H  0.50131799  0.40859263  0.85643646     0.07640
H319        H  0.50166197  0.39595774  0.77369573     0.08840
Cu320      Cu  0.50022022  0.34537436  0.86030121     0.44170
Cu321      Cu  0.50075809  0.33193652  0.79329334     0.41990
Cu322      Cu  0.49991421  0.27861611  0.84600555     0.43880
N323        N  0.49928713  0.31720356  0.88883428    -0.34780
N324        N  0.49925135  0.29183852  0.88437363    -0.29040
C325        C  0.49871749  0.27913819  0.90755590    -0.05140
C326        C  0.49837557  0.29779442  0.92727015     0.07080
C327        C  0.49874971  0.32153217  0.91454226     0.00880
H328        H  0.49862262  0.25813592  0.90984520     0.08530
H329        H  0.49872829  0.34074144  0.92335844     0.07610
N330        N  0.50024106  0.27326835  0.80568729    -0.36230
N331        N  0.50049040  0.29167130  0.78742439    -0.28410
C332        C  0.50053144  0.28017652  0.76381393    -0.03650
C333        C  0.50029394  0.25345779  0.76734882     0.04960
C334        C  0.50011897  0.24975823  0.79403523     0.03050
H335        H  0.50069944  0.29058898  0.74543253     0.08160
H336        H  0.49988245  0.23131623  0.80433640     0.06990
O337        O  0.49753764  0.95469428  0.68434807    -0.73050
O338        O  0.49751529  0.03152206  0.68438970    -0.74030
O339        O  0.53591879  0.99311753  0.68391419    -0.62650
O340        O  0.45910088  0.99309826  0.68473719    -0.71060
O341        O  0.45783139  0.99307955  0.72804302    -0.70610
O342        O  0.53783189  0.99310405  0.72720349    -0.61870
O343        O  0.49787380  0.03307072  0.72769215    -0.74370
O344        O  0.49790260  0.95311590  0.72764955    -0.73150
Cu345      Cu  0.49748835  0.99310912  0.68312386     1.04560
Cu346      Cu  0.49786512  0.99309194  0.72944969     1.04330
C347        C  0.49780882  0.94155610  0.70545100     0.93150
C348        C  0.49777282  0.04464613  0.70550313     0.92290
C349        C  0.54922036  0.99311076  0.70490632     0.84430
C350        C  0.44610553  0.99308501  0.70592866     0.90710
N351        N  0.99515499  0.19405986  0.88424024    -0.27400
N352        N  0.99527286  0.16866960  0.88856005    -0.35250
C353        C  0.99587932  0.16419424  0.91424452     0.00950
C354        C  0.99616927  0.18786086  0.92710504     0.06970
C355        C  0.99567450  0.20662468  0.90749649    -0.06130
H356        H  0.99610392  0.14493623  0.92294938     0.07640
H357        H  0.99572326  0.22761324  0.90990749     0.08840
Cu358      Cu  0.99488059  0.14066220  0.85986995     0.44170
Cu359      Cu  0.99461620  0.20754915  0.84593819     0.41990
Cu360      Cu  0.99458123  0.15439048  0.79301294     0.43880
N361        N  0.99522265  0.11184903  0.83198712    -0.34780
N362        N  0.99509074  0.11611377  0.80658856    -0.29040
C363        C  0.99557553  0.09283210  0.79407501    -0.05140
C364        C  0.99606200  0.07325947  0.81287701     0.07080
C365        C  0.99580408  0.08616828  0.83652004     0.00880
H366        H  0.99560693  0.09037810  0.77309128     0.08530
H367        H  0.99603425  0.07750037  0.85579456     0.07610
N368        N  0.99525521  0.19468692  0.78732538    -0.36230
N369        N  0.99526487  0.21306391  0.80562044    -0.28410
C370        C  0.99637316  0.23658237  0.79400865    -0.03650
C371        C  0.99713239  0.23289650  0.76732154     0.04960
C372        C  0.99635816  0.20619378  0.76375526     0.03050
H373        H  0.99684418  0.25500705  0.80433574     0.08160
H374        H  0.99681328  0.19578458  0.74537624     0.06990
N375        N  0.00295821  0.29183585  0.63013091    -0.27400
N376        N  0.00331735  0.31721532  0.62573509    -0.35250
C377        C  0.00327497  0.32158488  0.60001538     0.00950
C378        C  0.00286761  0.29786813  0.58721677     0.06970
C379        C  0.00269316  0.27918684  0.60690948    -0.06130
H380        H  0.00346834  0.34080865  0.59123522     0.07640
H381        H  0.00230649  0.25819267  0.60457868     0.08840
Cu382      Cu  0.00357183  0.34536351  0.65440360     0.44170
Cu383      Cu  0.00250579  0.27841606  0.66846313     0.41990
Cu384      Cu  0.00246769  0.33154496  0.72133949     0.43880
N385        N  0.00336112  0.37416652  0.68241516    -0.34780
N386        N  0.00295944  0.36983887  0.70780507    -0.29040
C387        C  0.00268400  0.39309082  0.72039017    -0.05140
C388        C  0.00290791  0.41273654  0.70166080     0.07080
C389        C  0.00334838  0.39987993  0.67797464     0.00880
H390        H  0.00224670  0.39547534  0.74137753     0.08530
H391        H  0.00355648  0.40861408  0.65873013     0.07610
N392        N  0.00118065  0.29126916  0.72705463    -0.36230
N393        N  0.00119473  0.27289052  0.70876323    -0.28410
C394        C  0.99982168  0.24938199  0.72036732    -0.03650
C395        C  0.99887754  0.25307720  0.74704786     0.04960
C396        C  0.99979987  0.27977550  0.75061730     0.03050
H397        H  0.99941264  0.23095467  0.71004235     0.08160
H398        H  0.99936966  0.29018723  0.76899555     0.06990
N399        N  0.11979218  0.99311649  0.80627840    -0.27400
N400        N  0.11549349  0.99310500  0.83167664    -0.35250
C401        C  0.08981485  0.99307884  0.83617742     0.00950
C402        C  0.07691811  0.99307382  0.81253091     0.06970
C403        C  0.09651599  0.99309903  0.79374406    -0.06130
H404        H  0.08113418  0.99306770  0.85544727     0.07640
H405        H  0.09408154  0.99310557  0.77275870     0.08840
Cu406      Cu  0.14416362  0.99312593  0.85972246     0.44170
Cu407      Cu  0.15810498  0.99314860  0.79272378     0.41990
Cu408      Cu  0.21093218  0.99315299  0.84597986     0.43880
N409        N  0.17200280  0.99313075  0.88859669    -0.34780
N410        N  0.19739085  0.99313903  0.88432676    -0.29040
C411        C  0.20989000  0.99313339  0.90762574    -0.05140
C412        C  0.19109580  0.99312122  0.92722171     0.07080
C413        C  0.16746768  0.99312043  0.91429206     0.00880
H414        H  0.23086471  0.99313828  0.91008130     0.08530
H415        H  0.14819867  0.99311191  0.92296068     0.07610
N416        N  0.21669889  0.99314460  0.80563614    -0.36230
N417        N  0.19845447  0.99314420  0.78721471    -0.28410
C418        C  0.21014597  0.99312670  0.76369506    -0.03650
C419        C  0.23683589  0.99311467  0.76741928     0.04960
C420        C  0.24030312  0.99312724  0.79415503     0.03050
H421        H  0.19988252  0.99311831  0.74523212     0.08160
H422        H  0.25865798  0.99311989  0.80460032     0.06990
N423        N  0.29765670  0.99307240  0.63058939    -0.27400
N424        N  0.32309172  0.99307833  0.62660106    -0.35250
C425        C  0.32793090  0.99308917  0.60095540     0.00950
C426        C  0.30445817  0.99309065  0.58776168     0.06970
C427        C  0.28543672  0.99307988  0.60714534    -0.06130
H428        H  0.34729620  0.99309519  0.59250552     0.07640
H429        H  0.26449173  0.99307673  0.60444545     0.08840
Cu430      Cu  0.35057854  0.99307235  0.65578440     0.44170
Cu431      Cu  0.28363996  0.99305628  0.66879936     0.41990
Cu432      Cu  0.33610457  0.99304585  0.72252830     0.43880
N433        N  0.37902336  0.99306950  0.68403170    -0.34780
N434        N  0.37455578  0.99305868  0.70939590    -0.29040
C435        C  0.39775540  0.99306209  0.72208808    -0.05140
C436        C  0.41747480  0.99307584  0.70341883     0.07080
C437        C  0.40471902  0.99308007  0.67969718     0.00880
H438        H  0.40005506  0.99305605  0.74308879     0.08530
H439        H  0.41351117  0.99309063  0.66047792     0.07610
N440        N  0.29571077  0.99305674  0.72764760    -0.36230
N441        N  0.27756145  0.99306015  0.70912855    -0.28410
C442        C  0.25389216  0.99307799  0.72050684    -0.03650
C443        C  0.25724635  0.99308722  0.74726435     0.04960
C444        C  0.28391218  0.99307255  0.75110006     0.03050
H445        H  0.23557896  0.99308825  0.70998763     0.08160
H446        H  0.29409889  0.99307743  0.76960505     0.06990
O447        O  0.95668590  0.99309751  0.78843762    -0.73050
O448        O  0.03658095  0.99307249  0.78796687    -0.74030
O449        O  0.99650654  0.95312612  0.78814771    -0.62650
O450        O  0.99653080  0.03303346  0.78820260    -0.71060
O451        O  0.99679931  0.03153718  0.83150934    -0.70610
O452        O  0.99677022  0.95458123  0.83145542    -0.61870
O453        O  0.03527507  0.99304634  0.83127572    -0.74370
O454        O  0.95841039  0.99307631  0.83174073    -0.73150
Cu455      Cu  0.99659100  0.99308249  0.78640494     1.04560
Cu456      Cu  0.99684365  0.99305828  0.83273829     1.04330
C457        C  0.94521239  0.99309755  0.81067627     0.93150
C458        C  0.04828574  0.99306154  0.81008838     0.92290
C459        C  0.99649177  0.94149894  0.81030688     0.84430
C460        C  0.99652703  0.04463878  0.81037438     0.90710
N461        N  0.20274055  0.49304113  0.63008509    -0.27400
N462        N  0.17731643  0.49304053  0.62604964    -0.35250
C463        C  0.17254090  0.49306808  0.60040884     0.00950
C464        C  0.19605612  0.49308805  0.58730547     0.06970
C465        C  0.21502910  0.49306958  0.60669588    -0.06130
H466        H  0.15319737  0.49307290  0.59190969     0.07640
H467        H  0.23598051  0.49307545  0.60404632     0.08840
Cu468      Cu  0.14973794  0.49301300  0.65508236     0.44170
Cu469      Cu  0.21671621  0.49301015  0.66818887     0.41990
Cu470      Cu  0.16390771  0.49296318  0.72163483     0.43880
N471        N  0.12113555  0.49301820  0.68310099    -0.34780
N472        N  0.12550182  0.49299540  0.70847477    -0.29040
C473        C  0.10225899  0.49300594  0.72107596    -0.05140
C474        C  0.08262596  0.49303925  0.70232066     0.07080
C475        C  0.09546474  0.49304536  0.67865124     0.00880
H476        H  0.09987237  0.49298754  0.74206770     0.08530
H477        H  0.08675287  0.49306298  0.65939712     0.07610
N478        N  0.20425474  0.49299939  0.72684739    -0.36230
N479        N  0.22252543  0.49301686  0.70844977    -0.28410
C480        C  0.24612447  0.49306366  0.71995141    -0.03650
C481        C  0.24256977  0.49307825  0.74666446     0.04960
C482        C  0.21589522  0.49303506  0.75035204     0.03050
H483        H  0.26450651  0.49309454  0.70954906     0.08160
H484        H  0.20558693  0.49303868  0.76879082     0.06990
N485        N  0.30008258  0.49317653  0.88418659    -0.27400
N486        N  0.32538360  0.49316076  0.88894017    -0.35250
C487        C  0.32937679  0.49313251  0.91469595     0.00950
C488        C  0.30548741  0.49312929  0.92714238     0.06970
C489        C  0.28708928  0.49315823  0.90721111    -0.06130
H490        H  0.34847146  0.49311674  0.92374121     0.07640
H491        H  0.26606852  0.49316755  0.90924108     0.08840
Cu492      Cu  0.35397887  0.49316961  0.86079212     0.44170
Cu493      Cu  0.28731334  0.49321459  0.84572180     0.41990
Cu494      Cu  0.34099593  0.49322395  0.79361253     0.43880
N495        N  0.38311498  0.49314802  0.83319953    -0.34780
N496        N  0.37903639  0.49317136  0.80776385    -0.29040
C497        C  0.40237818  0.49314960  0.79541526    -0.05140
C498        C  0.42181987  0.49310901  0.81432320     0.07080
C499        C  0.40878406  0.49311011  0.83790267     0.00880
H500        H  0.40496380  0.49316733  0.77444781     0.08530
H501        H  0.41734981  0.49309122  0.85722218     0.07610
N502        N  0.30082208  0.49320856  0.78728847    -0.36230
N503        N  0.28229839  0.49320341  0.80541684    -0.28410
C504        C  0.25888393  0.49316345  0.79362679    -0.03650
C505        C  0.26275264  0.49314108  0.76697406     0.04960
C506        C  0.28948916  0.49317252  0.76359721     0.03050
H507        H  0.24038765  0.49314187  0.80381991     0.08160
H508        H  0.30001350  0.49315839  0.74527866     0.06990
O509        O  0.96413220  0.49293200  0.68285842    -0.73050
O510        O  0.04102893  0.49304510  0.68354295    -0.74030
O511        O  0.00269578  0.45451628  0.68313977    -0.62650
O512        O  0.00258826  0.53147307  0.68318141    -0.71060
O513        O  0.00230835  0.53299241  0.72648048    -0.70610
O514        O  0.00240401  0.45296522  0.72643834    -0.61870
O515        O  0.04227754  0.49301881  0.72685391    -0.74370
O516        O  0.96234048  0.49291650  0.72614998    -0.73150
Cu517      Cu  0.00261390  0.49299475  0.68194766     1.04560
Cu518      Cu  0.00230277  0.49297503  0.72827072     1.04330
C519        C  0.95088081  0.49288775  0.70389866     0.93150
C520        C  0.05400654  0.49303766  0.70475024     0.92290
C521        C  0.00263971  0.44137656  0.70424789     0.84430
C522        C  0.00251388  0.54459894  0.70429981     0.90710
O523        O  0.50159801  0.53309572  0.78890652    -0.73050
O524        O  0.50169097  0.45319834  0.78889615    -0.74030
O525        O  0.46181236  0.49311064  0.78947989    -0.62650
O526        O  0.54154668  0.49319959  0.78813296    -0.71060
O527        O  0.54070424  0.49319710  0.83145872    -0.70610
O528        O  0.46369181  0.49310170  0.83278020    -0.61870
O529        O  0.50224770  0.45466692  0.83220253    -0.74370
O530        O  0.50215157  0.53162276  0.83221317    -0.73150
Cu531      Cu  0.50164044  0.49314922  0.78708903     1.04560
Cu532      Cu  0.50223679  0.49314535  0.83342611     1.04330
C533        C  0.50179888  0.54471121  0.81107447     0.93150
C534        C  0.50192378  0.44157942  0.81106133     0.92290
C535        C  0.45041401  0.49310313  0.81174959     0.84430
C536        C  0.55347867  0.49322354  0.81010841     0.90710
N537        N  0.50082751  0.61618089  0.20760584    -0.27400
N538        N  0.50072708  0.61204895  0.18218293    -0.35250
C539        C  0.50110850  0.58638348  0.17751220     0.00950
C540        C  0.50144379  0.57336185  0.20109182     0.06970
C541        C  0.50124995  0.59283841  0.21999151    -0.06130
H542        H  0.50105714  0.57780468  0.15819538     0.07640
H543        H  0.50137797  0.59027754  0.24096153     0.08840
Cu544      Cu  0.49988245  0.64101959  0.15447434     0.44170
Cu545      Cu  0.50038361  0.65434523  0.22148022     0.41990
Cu546      Cu  0.49947527  0.70774133  0.16881584     0.43880
N547        N  0.49895460  0.66919730  0.12596908    -0.34780
N548        N  0.49887222  0.69455922  0.13043938    -0.29040
C549        C  0.49836919  0.70726672  0.10726068    -0.05140
C550        C  0.49809771  0.68861320  0.08754288     0.07080
C551        C  0.49847901  0.66487389  0.10026265     0.00880
H552        H  0.49825243  0.72826941  0.10497669     0.08530
H553        H  0.49850624  0.64566610  0.09144300     0.07610
N554        N  0.49992506  0.71302972  0.20913526    -0.36230
N555        N  0.50019657  0.69460980  0.22738134    -0.28410
C556        C  0.50040060  0.70608699  0.25099979    -0.03650
C557        C  0.50025485  0.73280943  0.24748440     0.04960
C558        C  0.49995355  0.73653020  0.22080425     0.03050
H559        H  0.50064713  0.69566084  0.26937252     0.08160
H560        H  0.49976062  0.75498076  0.21051746     0.06990
N561        N  0.50116890  0.79283688  0.38439443    -0.27400
N562        N  0.50105361  0.81825437  0.38856100    -0.35250
C563        C  0.50135179  0.82288396  0.41423485     0.00950
C564        C  0.50164412  0.79928341  0.42722414     0.06970
C565        C  0.50151435  0.78041458  0.40771927    -0.06130
H566        H  0.50126821  0.84218785  0.42284241     0.07640
H567        H  0.50163173  0.75944085  0.41024835     0.08840
Cu568      Cu  0.50027055  0.84601629  0.35962742     0.44170
Cu569      Cu  0.50081835  0.77901057  0.34621768     0.41990
Cu570      Cu  0.49998998  0.83171648  0.29288264     0.43880
N571        N  0.49933838  0.87454446  0.33146104    -0.34780
N572        N  0.49930855  0.87008369  0.30609646    -0.29040
C573        C  0.49876246  0.89326504  0.29339640    -0.05140
C574        C  0.49840538  0.91297724  0.31205410     0.07080
C575        C  0.49878487  0.90025053  0.33579125     0.00880
H576        H  0.49866955  0.89555498  0.27239406     0.08530
H577        H  0.49875500  0.90906569  0.35500113     0.07610
N578        N  0.50032288  0.79139949  0.28754937    -0.36230
N579        N  0.50056834  0.77313923  0.30595494    -0.28410
C580        C  0.50060841  0.74952758  0.29446361    -0.03650
C581        C  0.50037394  0.75306032  0.26774504     0.04960
C582        C  0.50020233  0.77974515  0.26404131     0.03050
H583        H  0.50077001  0.73114744  0.30487825     0.08160
H584        H  0.49996595  0.79004411  0.24559801     0.06990
O585        O  0.49756214  0.67007762  0.96899222    -0.73050
O586        O  0.49752251  0.67012352  0.04581855    -0.74030
O587        O  0.45911995  0.67045687  0.00739014    -0.62650
O588        O  0.53592915  0.66965309  0.00742540    -0.71060
O589        O  0.53784066  0.71294258  0.00741199    -0.70610
O590        O  0.45784006  0.71376223  0.00737234    -0.61870
O591        O  0.49787706  0.71342621  0.04736599    -0.74370
O592        O  0.49791894  0.71337896  0.96741325    -0.73150
Cu593      Cu  0.49750374  0.66885462  0.00740727     1.04560
Cu594      Cu  0.49787384  0.71518062  0.00738952     1.04330
C595        C  0.49783023  0.69118033  0.95585360     0.93150
C596        C  0.49777969  0.69123767  0.05894125     0.92290
C597        C  0.44612004  0.69164389  0.00737592     0.84430
C598        C  0.54922916  0.69064634  0.00742762     0.90710
N599        N  0.11979736  0.79189917  0.00748991    -0.27400
N600        N  0.11550664  0.81729825  0.00748462    -0.35250
C601        C  0.08983051  0.82180669  0.00740386     0.00950
C602        C  0.07692640  0.79816463  0.00735590     0.06970
C603        C  0.09651696  0.77937151  0.00741614    -0.06130
H604        H  0.08115692  0.84107904  0.00738382     0.07640
H605        H  0.09407484  0.75838700  0.00740324     0.08840
Cu606      Cu  0.14417870  0.84533884  0.00756514     0.44170
Cu607      Cu  0.15810623  0.77833731  0.00756548     0.41990
Cu608      Cu  0.21093385  0.83160383  0.00758465     0.43880
N609        N  0.17201098  0.87421712  0.00756812    -0.34780
N610        N  0.19739873  0.86994983  0.00756969    -0.29040
C611        C  0.20989718  0.89324962  0.00754700    -0.05140
C612        C  0.19110184  0.91284293  0.00752938     0.07080
C613        C  0.16747426  0.89991130  0.00754494     0.00880
H614        H  0.23087178  0.89570743  0.00754061     0.08530
H615        H  0.14820472  0.90857753  0.00753466     0.07610
N616        N  0.21669822  0.79126217  0.00755531    -0.36230
N617        N  0.19845642  0.77283690  0.00755160    -0.28410
C618        C  0.21015183  0.74932007  0.00750549    -0.03650
C619        C  0.23684098  0.75305150  0.00747741     0.04960
C620        C  0.24030391  0.77978718  0.00751178     0.03050
H621        H  0.19989183  0.73085473  0.00748298     0.08160
H622        H  0.25865682  0.79023699  0.00749609     0.06990
N623        N  0.29769958  0.61625049  0.00726251    -0.27400
N624        N  0.32313446  0.61226291  0.00727310    -0.35250
C625        C  0.32797172  0.58661688  0.00725961     0.00950
C626        C  0.30449711  0.57342455  0.00724068     0.06970
C627        C  0.28547781  0.59280763  0.00724372    -0.06130
H628        H  0.34733606  0.57816604  0.00726671     0.07640
H629        H  0.26453258  0.59010823  0.00723428     0.08840
Cu630      Cu  0.35061814  0.64145174  0.00731108     0.44170
Cu631      Cu  0.28367767  0.65445463  0.00727967     0.41990
Cu632      Cu  0.33611882  0.70819760  0.00730979     0.43880
N633        N  0.37904837  0.66971621  0.00733707    -0.34780
N634        N  0.37457116  0.69507841  0.00733158    -0.29040
C635        C  0.39776525  0.70778179  0.00734628    -0.05140
C636        C  0.41749127  0.68912199  0.00736168     0.07080
C637        C  0.40474546  0.66539423  0.00735581     0.00880
H638        H  0.40005644  0.72878343  0.00734546     0.08530
H639        H  0.41354540  0.64617921  0.00736189     0.07610
N640        N  0.29572600  0.71330360  0.00733348    -0.36230
N641        N  0.27758280  0.69477790  0.00732522    -0.28410
C642        C  0.25390983  0.70614618  0.00736959    -0.03650
C643        C  0.25725611  0.73290441  0.00740885     0.04960
C644        C  0.28392046  0.73675108  0.00738295     0.03050
H645        H  0.23560008  0.69561985  0.00738030     0.08160
H646        H  0.29410137  0.75525972  0.00740715     0.06990
N647        N  0.99500532  0.87007407  0.20820472    -0.27400
N648        N  0.99519248  0.87441874  0.18281908    -0.35250
C649        C  0.99587136  0.90010704  0.17838016     0.00950
C650        C  0.99613815  0.91293178  0.20206811     0.06970
C651        C  0.99555272  0.89330683  0.22080335    -0.06130
H652        H  0.99615477  0.90883868  0.15913493     0.07640
H653        H  0.99555277  0.89568903  0.24179547     0.08840
Cu654      Cu  0.99479090  0.84575195  0.15477853     0.44170
Cu655      Cu  0.99435235  0.83179424  0.22167004     0.41990
Cu656      Cu  0.99431183  0.77889211  0.16852949     0.43880
N657        N  0.99513541  0.81783814  0.12598619    -0.34780
N658        N  0.99493273  0.79244436  0.13027494    -0.29040
C659        C  0.99544293  0.77989778  0.10701598    -0.05140
C660        C  0.99601986  0.79867167  0.08742726     0.07080
C661        C  0.99578750  0.82233548  0.10030127     0.00880
H662        H  0.99542470  0.75891087  0.10459011     0.08530
H663        H  0.99607797  0.84159727  0.09160712     0.07610
N664        N  0.99500752  0.77321141  0.20879822    -0.36230
N665        N  0.99501901  0.79150383  0.22717454    -0.28410
C666        C  0.99620396  0.77989975  0.25068715    -0.03650
C667        C  0.99701494  0.75322123  0.24698947     0.04960
C668        C  0.99618598  0.74964604  0.22029482     0.03050
H669        H  0.99671443  0.79022781  0.26911033     0.08160
H670        H  0.99667758  0.73126974  0.20988257     0.06990
N671        N  0.00314518  0.61611876  0.30585612    -0.27400
N672        N  0.00344543  0.61168733  0.33123059    -0.35250
C673        C  0.00337481  0.58595964  0.33555167     0.00950
C674        C  0.00301029  0.57320725  0.31180641     0.06970
C675        C  0.00288961  0.59292618  0.29316271    -0.06130
H676        H  0.00351725  0.57714250  0.35475906     0.07640
H677        H  0.00253998  0.59063486  0.27216336     0.08840
Cu678      Cu  0.00366683  0.64032559  0.35942746     0.44170
Cu679      Cu  0.00273471  0.65443043  0.29246477     0.41990
Cu680      Cu  0.00269433  0.70727336  0.34556620     0.43880
N681        N  0.00348763  0.66838308  0.38820325    -0.34780
N682        N  0.00314400  0.69376785  0.38384019    -0.29040
C683        C  0.00287727  0.70639715  0.40706371    -0.05140
C684        C  0.00304785  0.68770525  0.42673590     0.07080
C685        C  0.00344640  0.66399064  0.41392514     0.00880
H686        H  0.00247599  0.72738952  0.40940887     0.08530
H687        H  0.00360390  0.64476259  0.42269627     0.07610
N688        N  0.00134702  0.71298702  0.30532227    -0.36230
N689        N  0.00136177  0.69469875  0.28694445    -0.28410
C690        C  0.99989711  0.70629345  0.26344290    -0.03650
C691        C  0.99888945  0.73296454  0.26715096     0.04960
C692        C  0.99987429  0.73654370  0.29384059     0.03050
H693        H  0.99945400  0.69596738  0.24501689     0.08160
H694        H  0.99940895  0.75491913  0.30425566     0.06990
O695        O  0.95669655  0.77410002  0.00731893    -0.73050
O696        O  0.03658237  0.77361480  0.00731082    -0.74030
O697        O  0.99651812  0.77392836  0.04725046    -0.62650
O698        O  0.99652157  0.77375780  0.96734122    -0.71060
O699        O  0.99679441  0.81706602  0.96876649    -0.70610
O700        O  0.99680795  0.81723385  0.04568987    -0.61870
O701        O  0.03529206  0.81692412  0.00722714    -0.74370
O702        O  0.95842790  0.81740337  0.00724775    -0.73150
Cu703      Cu  0.99659520  0.77206473  0.00730535     1.04560
Cu704      Cu  0.99686143  0.81839869  0.00722604     1.04330
C705        C  0.94522774  0.79633912  0.00731030     0.93150
C706        C  0.04829446  0.79573242  0.00728829     0.92290
C707        C  0.99651497  0.79611975  0.05881913     0.84430
C708        C  0.99651165  0.79591013  0.95569976     0.90710
N709        N  0.20265201  0.61602641  0.50700951    -0.27400
N710        N  0.17722922  0.61198036  0.50699376    -0.35250
C711        C  0.17246423  0.58633725  0.50704073     0.00950
C712        C  0.19598609  0.57324730  0.50709077     0.06970
C713        C  0.21495026  0.59264507  0.50706623    -0.06130
H714        H  0.15312471  0.57782786  0.50704472     0.07640
H715        H  0.23590283  0.59000615  0.50709458     0.08840
Cu716      Cu  0.14964325  0.64100326  0.50695462     0.44170
Cu717      Cu  0.21662784  0.65412422  0.50698144     0.41990
Cu718      Cu  0.16386012  0.70756269  0.50693178     0.43880
N719        N  0.12107201  0.66904999  0.50701112    -0.34780
N720        N  0.12546841  0.69441880  0.50699182    -0.29040
C721        C  0.10224810  0.70705052  0.50703521    -0.05140
C722        C  0.08259574  0.68832178  0.50709249     0.07080
C723        C  0.09539532  0.66463310  0.50707346     0.00880
H724        H  0.09989079  0.72804537  0.50702033     0.08530
H725        H  0.08665432  0.64539185  0.50708949     0.07610
N726        N  0.20418749  0.71277482  0.50698204    -0.36230
N727        N  0.22245308  0.69437562  0.50700217    -0.28410
C728        C  0.24605195  0.70587412  0.50706507    -0.03650
C729        C  0.24249658  0.73258577  0.50708735     0.04960
C730        C  0.21582628  0.73627822  0.50703233     0.03050
H731        H  0.26443280  0.69547092  0.50710227     0.08160
H732        H  0.20551950  0.75471716  0.50703855     0.06990
N733        N  0.30007696  0.87006684  0.50736533    -0.27400
N734        N  0.32538067  0.87480787  0.50737711    -0.35250
C735        C  0.32938580  0.90056307  0.50740789     0.00950
C736        C  0.30550062  0.91301792  0.50741506     0.06970
C737        C  0.28709435  0.89309496  0.50738672    -0.06130
H738        H  0.34848401  0.90960196  0.50742053     0.07640
H739        H  0.26607447  0.89513270  0.50738044     0.08840
Cu740      Cu  0.35395351  0.84663349  0.50734745     0.44170
Cu741      Cu  0.28727941  0.83161623  0.50731930     0.41990
Cu742      Cu  0.34091281  0.77946275  0.50730933     0.43880
N743        N  0.38305546  0.81900156  0.50733640    -0.34780
N744        N  0.37895252  0.79357000  0.50732732    -0.29040
C745        C  0.40227809  0.78119404  0.50733257    -0.05140
C746        C  0.42173688  0.80008137  0.50734543     0.07080
C747        C  0.40872796  0.82367573  0.50734699     0.00880
H748        H  0.40483948  0.76022391  0.50732973     0.08530
H749        H  0.41731492  0.84298628  0.50735960     0.07610
N750        N  0.30074885  0.77318187  0.50726202    -0.36230
N751        N  0.28223692  0.79131992  0.50726283    -0.28410
C752        C  0.25881724  0.77954127  0.50720622    -0.03650
C753        C  0.26267732  0.75288840  0.50716725     0.04960
C754        C  0.28940784  0.74949755  0.50720570     0.03050
H755        H  0.24032541  0.78974145  0.50718837     0.08160
H756        H  0.29992396  0.73117511  0.50718557     0.06990
O757        O  0.00243593  0.66945371  0.54545684    -0.73050
O758        O  0.00272105  0.66927596  0.46853819    -0.74030
O759        O  0.04095985  0.66963723  0.50712985    -0.62650
O760        O  0.96407686  0.66921370  0.50682728    -0.71060
O761        O  0.96241890  0.71251154  0.50674941    -0.70610
O762        O  0.04232670  0.71294662  0.50703370    -0.61870
O763        O  0.00255277  0.71257334  0.46690572    -0.74370
O764        O  0.00229180  0.71275372  0.54694367    -0.73150
Cu765      Cu  0.00254548  0.66816336  0.50699883     1.04560
Cu766      Cu  0.00237356  0.71448877  0.50691210     1.04330
C767        C  0.00241545  0.69057938  0.55856662     0.93150
C768        C  0.00274585  0.69035743  0.45536243     0.92290
C769        C  0.05399101  0.69081179  0.50709558     0.84430
C770        C  0.95089474  0.69029620  0.50668017     0.90710
O771        O  0.50204270  0.81796669  0.54589469    -0.73050
O772        O  0.50212728  0.81797061  0.46893234    -0.74030
O773        O  0.46359566  0.81852493  0.50737596    -0.62650
O774        O  0.54056507  0.81727691  0.50745134    -0.71060
O775        O  0.54147680  0.77395260  0.50743553    -0.70610
O776        O  0.46172774  0.77522400  0.50737357    -0.61870
O777        O  0.50161062  0.77466303  0.46746497    -0.74370
O778        O  0.50153313  0.77465893  0.54735025    -0.73150
Cu779      Cu  0.50211823  0.81919540  0.50741381     1.04560
Cu780      Cu  0.50156541  0.77285738  0.50740633     1.04330
C781        C  0.50171989  0.79682123  0.55897478     0.93150
C782        C  0.50183136  0.79682682  0.45584671     0.92290
C783        C  0.45032543  0.79749263  0.50736492     0.84430
C784        C  0.55337148  0.79595064  0.50745040     0.90710
N785        N  0.50114456  0.19336334  0.38442067    -0.27400
N786        N  0.50104082  0.16794133  0.38855588    -0.35250
C787        C  0.50139615  0.16327696  0.41422287     0.00950
C788        C  0.50171566  0.18685947  0.42724398     0.06970
C789        C  0.50154021  0.20575422  0.40776330    -0.06130
H790        H  0.50132889  0.14396204  0.42280364     0.07640
H791        H  0.50165648  0.22672463  0.41032173     0.08840
Cu792      Cu  0.50020183  0.14022382  0.35958733     0.44170
Cu793      Cu  0.50072404  0.20722876  0.34624954     0.41990
Cu794      Cu  0.49985580  0.15455638  0.29285684     0.43880
N795        N  0.49925581  0.11171157  0.33141166    -0.34780
N796        N  0.49920248  0.11617576  0.30604844    -0.29040
C797        C  0.49867147  0.09299230  0.29334642    -0.05140
C798        C  0.49834923  0.07327857  0.31200392     0.07080
C799        C  0.49873214  0.08600641  0.33574019     0.00880
H800        H  0.49856825  0.09070164  0.27234401     0.08530
H801        H  0.49872882  0.07719269  0.35494985     0.07610
N802        N  0.50024640  0.19488413  0.28756104    -0.36230
N803        N  0.50050241  0.21313210  0.30598163    -0.28410
C804        C  0.50062289  0.23675184  0.29450527    -0.03650
C805        C  0.50043440  0.23323850  0.26778158     0.04960
C806        C  0.50020052  0.20655514  0.26406105     0.03050
H807        H  0.50082512  0.25512533  0.30493300     0.08160
H808        H  0.49998741  0.19626790  0.24560978     0.06990
N809        N  0.50111709  0.37015561  0.20766685    -0.27400
N810        N  0.50100603  0.37428179  0.18224309    -0.35250
C811        C  0.50134177  0.39994652  0.17756760     0.00950
C812        C  0.50165559  0.41297787  0.20114336     0.06970
C813        C  0.50149856  0.39350453  0.22004737    -0.06130
H814        H  0.50126362  0.40851869  0.15824884     0.07640
H815        H  0.50161511  0.39607240  0.24101683     0.08840
Cu816      Cu  0.50017446  0.34531137  0.15453025     0.44170
Cu817      Cu  0.50071559  0.33198500  0.22154503     0.41990
Cu818      Cu  0.49983468  0.27859753  0.16885765     0.43880
N819        N  0.49922311  0.31714384  0.12601215    -0.34780
N820        N  0.49917202  0.29178117  0.13047602    -0.29040
C821        C  0.49863876  0.27907893  0.10729282    -0.05140
C822        C  0.49831238  0.29773640  0.08757910     0.07080
C823        C  0.49869526  0.32147284  0.10030707     0.00880
H824        H  0.49853853  0.25807667  0.10500231     0.08530
H825        H  0.49869101  0.34068248  0.09149355     0.07610
N826        N  0.50023649  0.27329725  0.20918307    -0.36230
N827        N  0.50049730  0.29171172  0.22743748    -0.28410
C828        C  0.50062280  0.28022501  0.25105282    -0.03650
C829        C  0.50043281  0.25350205  0.24752829     0.04960
C830        C  0.50019284  0.24979285  0.22084424     0.03050
H831        H  0.50082901  0.29064479  0.26943081     0.08160
H832        H  0.49997629  0.23134597  0.21054928     0.06990
O833        O  0.49812750  0.95314416  0.28722936    -0.73050
O834        O  0.49810390  0.03309497  0.28719650    -0.74030
O835        O  0.53805203  0.99312693  0.28771193    -0.62650
O836        O  0.45804527  0.99310907  0.28683348    -0.71060
O837        O  0.45929664  0.99312557  0.33013929    -0.70610
O838        O  0.53609337  0.99313985  0.33099981    -0.61870
O839        O  0.49770845  0.03155225  0.33049874    -0.74370
O840        O  0.49772639  0.95471403  0.33053107    -0.73150
Cu841      Cu  0.49808609  0.99311819  0.28543949     1.04560
Cu842      Cu  0.49767379  0.99313396  0.33176502     1.04330
C843        C  0.49802806  0.94157967  0.30942371     0.93150
C844        C  0.49799741  0.04467383  0.30938419     0.92290
C845        C  0.54941546  0.99313208  0.31002035     0.84430
C846        C  0.44631032  0.99311480  0.30894632     0.90710
O847        O  0.49811292  0.27296658  0.96743949    -0.73050
O848        O  0.49807443  0.27292859  0.04739502    -0.74030
O849        O  0.45802551  0.27255357  0.00740244    -0.62650
O850        O  0.53803148  0.27345306  0.00743718    -0.71060
O851        O  0.53607144  0.31674034  0.00744891    -0.70610
O852        O  0.45926570  0.31585948  0.00741937    -0.61870
O853        O  0.49767240  0.31623045  0.04585241    -0.74370
O854        O  0.49770690  0.31626750  0.96901152    -0.73150
Cu855      Cu  0.49806575  0.27117258  0.00741717     1.04560
Cu856      Cu  0.49764667  0.31749746  0.00743370     1.04330
C857        C  0.49800864  0.29516152  0.95587501     0.93150
C858        C  0.49796279  0.29511619  0.05897411     0.92290
C859        C  0.44628439  0.29466190  0.00740695     0.84430
C860        C  0.54939500  0.29576205  0.00745075     0.90710
N861        N  0.20280614  0.37021732  0.50703799    -0.27400
N862        N  0.17737845  0.37423829  0.50702250    -0.35250
C863        C  0.17258679  0.39987573  0.50705591     0.00950
C864        C  0.19609371  0.41298935  0.50709710     0.06970
C865        C  0.21507904  0.39361177  0.50708157    -0.06130
H866        H  0.15323812  0.40836501  0.50705898     0.07640
H867        H  0.23602873  0.39627287  0.50710858     0.08840
Cu868      Cu  0.14980408  0.34520724  0.50700427     0.44170
Cu869      Cu  0.21683644  0.33213752  0.50702777     0.41990
Cu870      Cu  0.16410100  0.27869155  0.50698935     0.43880
N871        N  0.12126223  0.31713327  0.50706848    -0.34780
N872        N  0.12570436  0.29177308  0.50704913    -0.29040
C873        C  0.10251340  0.27909597  0.50708929    -0.05140
C874        C  0.08282817  0.29778550  0.50714479     0.07080
C875        C  0.09557626  0.32150179  0.50712831     0.00880
H876        H  0.10019845  0.25809644  0.50707135     0.08530
H877        H  0.08679502  0.34072495  0.50714096     0.07610
N878        N  0.20441342  0.27349132  0.50704108    -0.36230
N879        N  0.22268015  0.29188756  0.50705844    -0.28410
C880        C  0.24627607  0.28038144  0.50712190    -0.03650
C881        C  0.24270926  0.25367021  0.50714703     0.04960
C882        C  0.21604172  0.24998574  0.50709354     0.03050
H883        H  0.26466060  0.29077745  0.50715565     0.08160
H884        H  0.20572796  0.23155110  0.50710100     0.06990
N885        N  0.37908671  0.19260692  0.50736493    -0.27400
N886        N  0.38317772  0.16717353  0.50736966    -0.35250
C887        C  0.40884736  0.16249109  0.50737412     0.00950
C888        C  0.42186290  0.18608200  0.50737322     0.06970
C889        C  0.40241405  0.20497617  0.50736731    -0.06130
H890        H  0.41742794  0.14317733  0.50738299     0.07640
H891        H  0.40498190  0.22594542  0.50736762     0.08840
Cu892      Cu  0.35406797  0.13954810  0.50738366     0.44170
Cu893      Cu  0.34106772  0.20673125  0.50735568     0.41990
Cu894      Cu  0.28740951  0.15460721  0.50735852     0.43880
N895        N  0.32547957  0.11138791  0.50741110    -0.34780
N896        N  0.30017920  0.11614741  0.50739901    -0.29040
C897        C  0.28717991  0.09312932  0.50741574    -0.05140
C898        C  0.30557141  0.07319232  0.50744154     0.07080
C899        C  0.32946610  0.08562920  0.50743772     0.00880
H900        H  0.26615854  0.09110770  0.50740719     0.08530
H901        H  0.34855762  0.07657555  0.50744856     0.07610
N902        N  0.28239689  0.19490708  0.50731132    -0.36230
N903        N  0.30092055  0.21303180  0.50731305    -0.28410
C904        C  0.28960115  0.23672508  0.50726189    -0.03650
C905        C  0.26287122  0.23335439  0.50722433     0.04960
C906        C  0.25898769  0.20670481  0.50725843     0.03050
H907        H  0.30013208  0.25503865  0.50724406     0.08160
H908        H  0.24048780  0.19652001  0.50723892     0.06990
O909        O  0.04113656  0.31634837  0.50717261    -0.73050
O910        O  0.96425523  0.31645659  0.50683620    -0.74030
O911        O  0.00259754  0.31638314  0.54546688    -0.62650
O912        O  0.00291589  0.31657688  0.46857961    -0.71060
O913        O  0.00290550  0.27327974  0.46691768    -0.70610
O914        O  0.00261110  0.27308295  0.54696180    -0.61870
O915        O  0.96276141  0.27315229  0.50674787    -0.74370
O916        O  0.04264968  0.27304219  0.50706572    -0.73150
Cu917      Cu  0.00271684  0.31767240  0.50702505     1.04560
Cu918      Cu  0.00271488  0.27134536  0.50692671     1.04330
C919        C  0.05423646  0.29521591  0.50713797     0.93150
C920        C  0.95115476  0.29532263  0.50667869     0.92290
C921        C  0.00265412  0.29526288  0.55857876     0.84430
C922        C  0.00302845  0.29550504  0.45539141     0.90710
O923        O  0.28013515  0.99310940  0.54735843    -0.73050
O924        O  0.28022862  0.99312036  0.46750634    -0.74030
O925        O  0.28036615  0.95307055  0.50742156    -0.62650
O926        O  0.28040367  0.03316124  0.50743570    -0.71060
O927        O  0.32367692  0.03139694  0.50747796    -0.70610
O928        O  0.32364088  0.95479682  0.50746359    -0.61870
O929        O  0.32351857  0.99310232  0.46887007    -0.74370
O930        O  0.32342726  0.99309120  0.54607280    -0.73150
Cu931      Cu  0.27849250  0.99311645  0.50742937     1.04560
Cu932      Cu  0.32479891  0.99309621  0.50747343     1.04330
C933        C  0.30222277  0.99309756  0.55908636     0.93150
C934        C  0.30233982  0.99311249  0.45581881     0.92290
C935        C  0.30261100  0.94159029  0.50743598     0.84430
C936        C  0.30265835  0.04462208  0.50745418     0.90710
N937        N  0.11995515  0.19435165  0.00748691    -0.27400
N938        N  0.11565927  0.16895405  0.00747742    -0.35250
C939        C  0.08998281  0.16444895  0.00739776     0.00950
C940        C  0.07708350  0.18809288  0.00735514     0.06970
C941        C  0.09667679  0.20688315  0.00741703    -0.06130
H942        H  0.08130635  0.14517823  0.00737639     0.07640
H943        H  0.09423755  0.22786810  0.00740953     0.08840
Cu944      Cu  0.14432793  0.14091673  0.00755623     0.44170
Cu945      Cu  0.15827028  0.20789812  0.00756699     0.41990
Cu946      Cu  0.21109128  0.15461290  0.00758844     0.43880
N947        N  0.17214130  0.11202661  0.00756304    -0.34780
N948        N  0.19753213  0.11627372  0.00756904    -0.29040
C949        C  0.21001106  0.09296254  0.00754897    -0.05140
C950        C  0.19119833  0.07338565  0.00752869     0.07080
C951        C  0.16758267  0.08633756  0.00753978     0.00880
H952        H  0.23098353  0.09048602  0.00754679     0.08530
H953        H  0.14830551  0.07768893  0.00752669     0.07610
N954        N  0.21686302  0.19495557  0.00756792    -0.36230
N955        N  0.19862366  0.21338432  0.00756330    -0.28410
C956        C  0.21032249  0.23689890  0.00752602    -0.03650
C957        C  0.23701131  0.23316383  0.00750485     0.04960
C958        C  0.24047067  0.20642722  0.00753385     0.03050
H959        H  0.20006464  0.25536582  0.00750521     0.08160
H960        H  0.25882249  0.19597479  0.00752126     0.06990
N961        N  0.29782027  0.36997939  0.00730251    -0.27400
N962        N  0.32325200  0.37398614  0.00731324    -0.35250
C963        C  0.32806767  0.39963690  0.00729266     0.00950
C964        C  0.30458136  0.41281116  0.00726856     0.06970
C965        C  0.28557893  0.39341240  0.00727636    -0.06130
H966        H  0.34742476  0.40810357  0.00729713     0.07640
H967        H  0.26463142  0.39609472  0.00726398     0.08840
Cu968      Cu  0.35075448  0.34480916  0.00735570     0.44170
Cu969      Cu  0.28382807  0.33176524  0.00732598     0.41990
Cu970      Cu  0.33628712  0.27804142  0.00735948     0.43880
N971        N  0.37919639  0.31655045  0.00737871    -0.34780
N972        N  0.37473336  0.29118544  0.00737522    -0.29040
C973        C  0.39793547  0.27849429  0.00738604    -0.05140
C974        C  0.41765198  0.29716416  0.00739666     0.07080
C975        C  0.40489137  0.32088499  0.00739217     0.00880
H976        H  0.40023845  0.25749387  0.00738581     0.08530
H977        H  0.41368030  0.34010475  0.00739569     0.07610
N978        N  0.29589405  0.27291865  0.00738097    -0.36230
N979        N  0.27774648  0.29144070  0.00737141    -0.28410
C980        C  0.25407604  0.28006867  0.00741009    -0.03650
C981        C  0.25742673  0.25331108  0.00744664     0.04960
C982        C  0.28409257  0.24946864  0.00742560     0.03050
H983        H  0.23576446  0.29059249  0.00741689     0.08160
H984        H  0.29427669  0.23096138  0.00744791     0.06990
N985        N  0.11997049  0.99311235  0.20873663    -0.27400
N986        N  0.11568216  0.99310006  0.18333806    -0.35250
C987        C  0.09000810  0.99307464  0.17882561     0.00950
C988        C  0.07710162  0.99307112  0.20246541     0.06970
C989        C  0.09668792  0.99309623  0.22126192    -0.06130
H990        H  0.08133846  0.99306407  0.15955222     0.07640
H991        H  0.09424122  0.99310475  0.24224634     0.08840
Cu992      Cu  0.14435166  0.99312220  0.15530502     0.44170
Cu993      Cu  0.15828214  0.99314701  0.22228863     0.41990
Cu994      Cu  0.21110117  0.99315326  0.16898859     0.43880
N995        N  0.17215512  0.99312939  0.12640831    -0.34780
N996        N  0.19754591  0.99313844  0.13065097    -0.29040
C997        C  0.21002236  0.99313434  0.10733787    -0.05140
C998        C  0.19120694  0.99312258  0.08776494     0.07080
C999        C  0.16759282  0.99312027  0.10072058     0.00880
H1000       H  0.23099451  0.99314020  0.10485747     0.08530
H1001       H  0.14831447  0.99311138  0.09207570     0.07610
N1002       N  0.21687224  0.99315340  0.20932917    -0.36230
N1003       N  0.19863640  0.99315231  0.22776286    -0.28410
C1004       C  0.21034025  0.99314427  0.25127419    -0.03650
C1005       C  0.23702803  0.99313942  0.24753058     0.04960
C1006       C  0.24048193  0.99314601  0.22079366     0.03050
H1007       H  0.20008671  0.99313816  0.26974427     0.08160
H1008       H  0.25883136  0.99314203  0.21033581     0.06990
N1009       N  0.37475998  0.99310184  0.30550424    -0.27400
N1010       N  0.37923278  0.99310837  0.33086755    -0.35250
C1011       C  0.40492936  0.99311307  0.33518905     0.00950
C1012       C  0.41767980  0.99310943  0.31146158     0.06970
C1013       C  0.39795634  0.99310226  0.29280147    -0.06130
H1014       H  0.41372649  0.99311936  0.35440466     0.07640
H1015       H  0.40025051  0.99309869  0.27179979     0.08840
Cu1016     Cu  0.35080490  0.99311221  0.35914421     0.44170
Cu1017     Cu  0.33631311  0.99309655  0.29237225     0.41990
Cu1018     Cu  0.28387677  0.99310138  0.34610838     0.43880
N1019       N  0.32330261  0.99311368  0.38832522    -0.34780
N1020       N  0.29787131  0.99310923  0.38431725    -0.29040
C1021       C  0.28562593  0.99311002  0.40774811    -0.05140
C1022       C  0.30462438  0.99311481  0.42714803     0.07080
C1023       C  0.32811389  0.99311703  0.41397706     0.00880
H1024       H  0.26467794  0.99310567  0.41042802     0.08530
H1025       H  0.34746925  0.99311964  0.42244652     0.07610
N1026       N  0.27777982  0.99310579  0.30579000    -0.36230
N1027       N  0.29592135  0.99310443  0.28726128    -0.28410
C1028       C  0.28411294  0.99311488  0.26381595    -0.03650
C1029       C  0.25744859  0.99312356  0.26766952     0.04960
C1030       C  0.25410578  0.99311697  0.29442798     0.03050
H1031       H  0.29429121  0.99311810  0.24530474     0.08160
H1032       H  0.23579767  0.99312236  0.30495908     0.06990
N1033       N  0.99513927  0.11607430  0.20812611    -0.27400
N1034       N  0.99533034  0.11173056  0.18273995    -0.35250
C1035       C  0.99598045  0.08603943  0.17830196     0.00950
C1036       C  0.99622370  0.07321873  0.20199276     0.06970
C1037       C  0.99565531  0.09284484  0.22072565    -0.06130
H1038       H  0.99625956  0.07730330  0.15905782     0.07640
H1039       H  0.99564529  0.09046605  0.24171795     0.08840
Cu1040     Cu  0.99496513  0.14041706  0.15471361     0.44170
Cu1041     Cu  0.99452566  0.15434046  0.22160717     0.41990
Cu1042     Cu  0.99451909  0.20728587  0.16853480     0.43880
N1043       N  0.99531829  0.16837764  0.12596198    -0.34780
N1044       N  0.99512583  0.19376734  0.13027967    -0.29040
C1045       C  0.99563465  0.20634287  0.10703844    -0.05140
C1046       C  0.99619873  0.18759244  0.08742869     0.07080
C1047       C  0.99596139  0.16391240  0.10027208     0.00880
H1048       H  0.99562294  0.22733273  0.10463987     0.08530
H1049       H  0.99624121  0.14466074  0.09155303     0.07610
N1050       N  0.99524737  0.21292424  0.20879702    -0.36230
N1051       N  0.99524978  0.19461448  0.22715283    -0.28410
C1052       C  0.99647120  0.20619166  0.25067577    -0.03650
C1053       C  0.99731455  0.23287024  0.24700231     0.04960
C1054       C  0.99646703  0.23647583  0.22031486     0.03050
H1055       H  0.99698287  0.19584509  0.26908740     0.08160
H1056       H  0.99697477  0.25486121  0.20992156     0.06990
N1057       N  0.00344647  0.36988945  0.30597597    -0.27400
N1058       N  0.00374282  0.37432549  0.33135011    -0.35250
C1059       C  0.00364170  0.40005604  0.33566470     0.00950
C1060       C  0.00325882  0.41279697  0.31191345     0.06970
C1061       C  0.00315957  0.39307412  0.29327659    -0.06130
H1062       H  0.00376443  0.40888229  0.35486895     0.07640
H1063       H  0.00279467  0.39535671  0.27227675     0.08840
Cu1064     Cu  0.00397555  0.34567401  0.35953788     0.44170
Cu1065     Cu  0.00307113  0.33159283  0.29257176     0.41990
Cu1066     Cu  0.00308518  0.27871370  0.34559968     0.43880
N1067       N  0.00380480  0.31756648  0.38826898    -0.34780
N1068       N  0.00349929  0.29218598  0.38387362    -0.29040
C1069       C  0.00322945  0.27952432  0.40707697    -0.05140
C1070       C  0.00335503  0.29818992  0.42677209     0.07080
C1071       C  0.00373271  0.32192319  0.41399610     0.00880
H1072       H  0.00285189  0.25852836  0.40939171     0.08530
H1073       H  0.00385583  0.34113984  0.42279486     0.07610
N1074       N  0.00172252  0.27303598  0.30536367    -0.36230
N1075       N  0.00171921  0.29134161  0.28700677    -0.28410
C1076       C  0.00023286  0.27977306  0.26349502    -0.03650
C1077       C  0.99922765  0.25310084  0.26717854     0.04960
C1078       C  0.00023853  0.24949162  0.29386077     0.03050
H1079       H  0.99976421  0.29011795  0.24508132     0.08160
H1080       H  0.99977582  0.23110654  0.30425678     0.06990
O1081       O  0.03546562  0.99304922  0.18370654    -0.73050
O1082       O  0.95859267  0.99308833  0.18328300    -0.74030
O1083       O  0.99699026  0.03149718  0.18345672    -0.62650
O1084       O  0.99695105  0.95463679  0.18350332    -0.71060
O1085       O  0.99669123  0.95312834  0.22681046    -0.70610
O1086       O  0.99672725  0.03304673  0.22676308    -0.61870
O1087       O  0.95690137  0.99310868  0.22658944    -0.74370
O1088       O  0.03676614  0.99307470  0.22701656    -0.73150
Cu1089     Cu  0.99703037  0.99306605  0.18224737     1.04560
Cu1090     Cu  0.99678918  0.99308993  0.22858325     1.04330
C1091       C  0.04847188  0.99306244  0.20489622     0.93150
C1092       C  0.94541351  0.99310854  0.20436367     0.92290
C1093       C  0.99671386  0.04461849  0.20457241     0.84430
C1094       C  0.99666248  0.94153492  0.20463011     0.90710
O1095       O  0.17247254  0.95460934  0.00751219    -0.73050
O1096       O  0.17252334  0.03164192  0.00751299    -0.74030
O1097       O  0.17246912  0.99312535  0.96899202    -0.62650
O1098       O  0.17252729  0.99312762  0.04602532    -0.71060
O1099       O  0.21581189  0.99310365  0.04746306    -0.70610
O1100       O  0.21575151  0.99310191  0.96749187    -0.61870
O1101       O  0.21580762  0.03308629  0.00748507    -0.74370
O1102       O  0.21575516  0.95311480  0.00748370    -0.73150
Cu1103     Cu  0.17125226  0.99312681  0.00751081     1.04560
Cu1104     Cu  0.21755573  0.99310003  0.00747802     1.04330
C1105       C  0.19359700  0.94149510  0.00750565     0.93150
C1106       C  0.19366285  0.04473141  0.00750645     0.92290
C1107       C  0.19359266  0.99311556  0.95587461     0.84430
C1108       C  0.19366817  0.99311760  0.05911118     0.90710
O1109       O  0.03543823  0.16934974  0.00723442    -0.73050
O1110       O  0.95856390  0.16894434  0.00726627    -0.74030
O1111       O  0.99693044  0.16922511  0.96879492    -0.62650
O1112       O  0.99695617  0.16906278  0.04568836    -0.71060
O1113       O  0.99670373  0.21236809  0.04726903    -0.70610
O1114       O  0.99669373  0.21253305  0.96735183    -0.61870
O1115       O  0.95688135  0.21225008  0.00733751    -0.74370
O1116       O  0.03675541  0.21265869  0.00731870    -0.73150
Cu1117     Cu  0.99700161  0.16790432  0.00723944     1.04560
Cu1118     Cu  0.99677573  0.21423906  0.00731961     1.04330
C1119       C  0.04845333  0.19053441  0.00729343     0.93150
C1120       C  0.94538783  0.19002553  0.00732790     0.92290
C1121       C  0.99666331  0.19037283  0.95572113     0.84430
C1122       C  0.99668519  0.19017048  0.05882599     0.90710
N1123       N  0.20271831  0.49307283  0.38427499    -0.27400
N1124       N  0.17729186  0.49307723  0.38830599    -0.35250
C1125       C  0.17251026  0.49309353  0.41394596     0.00950
C1126       C  0.19602368  0.49310114  0.42704676     0.06970
C1127       C  0.21500053  0.49308733  0.40766202    -0.06130
H1128       H  0.15316543  0.49310016  0.42244523     0.07640
H1129       H  0.23595135  0.49308725  0.41031293     0.08840
Cu1130     Cu  0.14971131  0.49307022  0.35928327     0.44170
Cu1131     Cu  0.21674950  0.49305298  0.34620139     0.41990
Cu1132     Cu  0.16405761  0.49301061  0.29276043     0.43880
N1133       N  0.12120273  0.49307806  0.33117894    -0.34780
N1134       N  0.12567639  0.49304808  0.30582385    -0.29040
C1135       C  0.10250925  0.49305255  0.29311444    -0.05140
C1136       C  0.08280390  0.49308958  0.31177614     0.07080
C1137       C  0.09551079  0.49310444  0.33551276     0.00880
H1138       H  0.10022516  0.49302465  0.27211143     0.08530
H1139       H  0.08669908  0.49312337  0.35472258     0.07610
N1140       N  0.20434885  0.49305001  0.28756273    -0.36230
N1141       N  0.22261008  0.49306705  0.30596103    -0.28410
C1142       C  0.24620585  0.49311710  0.29445815    -0.03650
C1143       C  0.24263817  0.49313406  0.26774815     0.04960
C1144       C  0.21597528  0.49308908  0.26405837     0.03050
H1145       H  0.26458922  0.49314758  0.30485515     0.08160
H1146       H  0.20566303  0.49309333  0.24562332     0.06990
N1147       N  0.37900113  0.49320738  0.20680402    -0.27400
N1148       N  0.38311841  0.49317709  0.18137485    -0.35250
C1149       C  0.40879169  0.49313021  0.17672391     0.00950
C1150       C  0.42177785  0.49313076  0.20033131     0.06970
C1151       C  0.40231066  0.49318177  0.21920308    -0.06130
H1152       H  0.41739538  0.49310604  0.15741972     0.07640
H1153       H  0.40485229  0.49320515  0.24017552     0.08840
Cu1154     Cu  0.35404512  0.49320426  0.15370720     0.44170
Cu1155     Cu  0.34098392  0.49327404  0.22088191     0.41990
Cu1156     Cu  0.28737764  0.49325887  0.16871243     0.43880
N1157       N  0.32547904  0.49319637  0.12552019    -0.34780
N1158       N  0.30017600  0.49321403  0.13026735    -0.29040
C1159       C  0.28718693  0.49319178  0.10724583    -0.05140
C1160       C  0.30558615  0.49315859  0.08731684     0.07080
C1161       C  0.32947700  0.49316342  0.09976173     0.00880
H1162       H  0.26616641  0.49320035  0.10521686     0.08530
H1163       H  0.34857188  0.49314391  0.09071398     0.07610
N1164       N  0.28233657  0.49325571  0.20900321    -0.36230
N1165       N  0.30084815  0.49326334  0.22713796    -0.28410
C1166       C  0.28952090  0.49323019  0.25082439    -0.03650
C1167       C  0.26279734  0.49319804  0.24743934     0.04960
C1168       C  0.25892217  0.49321715  0.22078946     0.03050
H1169       H  0.30004364  0.49321713  0.26914210     0.08160
H1170       H  0.24042673  0.49319292  0.21059745     0.06990
O1171       O  0.00262751  0.53143653  0.33023112    -0.73050
O1172       O  0.00277582  0.45458800  0.33029453    -0.74030
O1173       O  0.04107419  0.49308376  0.33024332    -0.62650
O1174       O  0.96421063  0.49292851  0.33008714    -0.71060
O1175       O  0.96285012  0.49289792  0.28677687    -0.70610
O1176       O  0.04270735  0.49304340  0.28693876    -0.61870
O1177       O  0.00290216  0.45295516  0.28699682    -0.74370
O1178       O  0.00276513  0.53301014  0.28693235    -0.73150
Cu1179     Cu  0.00265707  0.49301300  0.33144387     1.04560
Cu1180     Cu  0.00279515  0.49297800  0.28511469     1.04330
C1181       C  0.00276443  0.54458302  0.30913692     0.93150
C1182       C  0.00294309  0.44141442  0.30921667     0.92290
C1183       C  0.05422803  0.49307544  0.30914426     0.84430
C1184       C  0.95117886  0.49286834  0.30891097     0.90710
O1185       O  0.32345050  0.53172914  0.00721392    -0.73050
O1186       O  0.32349411  0.45452583  0.00722699    -0.74030
O1187       O  0.32362685  0.49312120  0.96891926    -0.62650
O1188       O  0.32369132  0.49313741  0.04551907    -0.71060
O1189       O  0.28041786  0.49312034  0.04729123    -0.70610
O1190       O  0.28035229  0.49310447  0.96720011    -0.61870
O1191       O  0.28020377  0.45318179  0.00725526    -0.74370
O1192       O  0.28015869  0.53303296  0.00724259    -0.73150
Cu1193     Cu  0.32479874  0.49312846  0.00721762     1.04560
Cu1194     Cu  0.27849229  0.49310780  0.00724843     1.04330
C1195       C  0.30225205  0.54475105  0.00723021     0.93150
C1196       C  0.30230869  0.44148373  0.00724757     0.92290
C1197       C  0.30259574  0.49311609  0.95571573     0.84430
C1198       C  0.30267425  0.49313650  0.05874758     0.90710
O1199       O  0.17720602  0.49310310  0.54566673    -0.73050
O1200       O  0.17718338  0.49310436  0.46868846    -0.74030
O1201       O  0.17722253  0.45461690  0.50716717    -0.62650
O1202       O  0.17716702  0.53159484  0.50717036    -0.71060
O1203       O  0.22046692  0.53300524  0.50715329    -0.70610
O1204       O  0.22052433  0.45325986  0.50715137    -0.61870
O1205       O  0.22048454  0.49312894  0.46729224    -0.74370
O1206       O  0.22050657  0.49312811  0.54703795    -0.73150
Cu1207     Cu  0.17592301  0.49310448  0.50717611     1.04560
Cu1208     Cu  0.22225435  0.49313274  0.50716066     1.04330
C1209       C  0.19838196  0.49310928  0.55869481     0.93150
C1210       C  0.19835481  0.49311294  0.45565066     0.92290
C1211       C  0.19840465  0.44159730  0.50714420     0.84430
C1212       C  0.19833226  0.54464100  0.50714520     0.90710
O1213       O  0.50167235  0.21142630  0.54737916    -0.73050
O1214       O  0.50175731  0.21143926  0.46750581    -0.74030
O1215       O  0.46187364  0.21091158  0.50740530    -0.62650
O1216       O  0.54163644  0.21205414  0.50747756    -0.71060
O1217       O  0.54063462  0.16873222  0.50747878    -0.70610
O1218       O  0.46369411  0.16760819  0.50739487    -0.61870
O1219       O  0.50221135  0.16813000  0.46894241    -0.74370
O1220       O  0.50211981  0.16811732  0.54592875    -0.73150
Cu1221     Cu  0.50171786  0.21322549  0.50744227     1.04560
Cu1222     Cu  0.50219980  0.16688657  0.50743562     1.04330
C1223       C  0.50181764  0.18926800  0.55900686     0.93150
C1224       C  0.50193695  0.18928410  0.45587098     0.92290
C1225       C  0.45044885  0.18865379  0.50739046     0.84430
C1226       C  0.55348484  0.19002877  0.50749012     0.90710
O1227       O  0.50199263  0.53166105  0.18236236    -0.73050
O1228       O  0.50210285  0.45466943  0.18239141    -0.74030
O1229       O  0.46359650  0.49311525  0.18187483    -0.62650
O1230       O  0.54049078  0.49322641  0.18293074    -0.71060
O1231       O  0.54156124  0.49324569  0.22625130    -0.70610
O1232       O  0.46178408  0.49313882  0.22517913    -0.61870
O1233       O  0.50168939  0.45325047  0.22570195    -0.74370
O1234       O  0.50158258  0.53311230  0.22567270    -0.73150
Cu1235     Cu  0.50207841  0.49316533  0.18113160     1.04560
Cu1236     Cu  0.50163730  0.49318489  0.22747166     1.04330
C1237       C  0.50171512  0.54473826  0.20351502     0.93150
C1238       C  0.50185608  0.44160650  0.20355224     0.92290
C1239       C  0.45035739  0.49312349  0.20292117     0.84430
C1240       C  0.55337240  0.49326839  0.20420334     0.90710
N1241       N  0.62484235  0.49349349  0.20827825    -0.27400
N1242       N  0.62053734  0.49349916  0.18289588    -0.35250
C1243       C  0.59490173  0.49341970  0.17833063     0.00950
C1244       C  0.58198603  0.49335932  0.20193177     0.06970
C1245       C  0.60154328  0.49341091  0.22077981    -0.06130
H1246       H  0.58627572  0.49339862  0.15903686     0.07640
H1247       H  0.59906426  0.49337915  0.24176018     0.08840
Cu1248     Cu  0.64903629  0.49355864  0.15493316     0.44170
Cu1249     Cu  0.66327686  0.49354568  0.22151291     0.41990
Cu1250     Cu  0.71577844  0.49357386  0.16761442     0.43880
N1251       N  0.67619517  0.49350351  0.12566552    -0.34780
N1252       N  0.70164186  0.49351329  0.12950081    -0.29040
C1253       C  0.71369667  0.49344374  0.10599108    -0.05140
C1254       C  0.69452245  0.49338450  0.08677134     0.07080
C1255       C  0.67114931  0.49342599  0.10007886     0.00880
H1256       H  0.73462183  0.49343186  0.10313708     0.08530
H1257       H  0.65172510  0.49340025  0.09176760     0.07610
N1258       N  0.72182953  0.49344990  0.20790681    -0.36230
N1259       N  0.70371619  0.49343611  0.22646855    -0.28410
C1260       C  0.71558162  0.49325007  0.24988247    -0.03650
C1261       C  0.74223792  0.49313669  0.24596445     0.04960
C1262       C  0.74552592  0.49327464  0.21921057     0.03050
H1263       H  0.70544708  0.49316795  0.26841684     0.08160
H1264       H  0.76381101  0.49321296  0.20863829     0.06990
N1265       N  0.87970558  0.49254918  0.30500669    -0.27400
N1266       N  0.88395636  0.49251201  0.33041394    -0.35250
C1267       C  0.90962589  0.49262458  0.33496363     0.00950
C1268       C  0.92255773  0.49273848  0.31134091     0.06970
C1269       C  0.90300262  0.49268360  0.29251791    -0.06130
H1270       H  0.91827295  0.49262908  0.35424716     0.07640
H1271       H  0.90547986  0.49274911  0.27153708     0.08840
Cu1272     Cu  0.85525456  0.49236705  0.35841699     0.44170
Cu1273     Cu  0.84144322  0.49247212  0.29132302     0.41990
Cu1274     Cu  0.78859094  0.49232347  0.34452926     0.43880
N1275       N  0.82735481  0.49237857  0.38722626    -0.34780
N1276       N  0.80198165  0.49236162  0.38288970    -0.29040
C1277       C  0.78940671  0.49243364  0.40614645    -0.05140
C1278       C  0.80814229  0.49250515  0.42578908     0.07080
C1279       C  0.83181182  0.49246329  0.41293024     0.00880
H1280       H  0.76842433  0.49244956  0.40853944     0.08530
H1281       H  0.85105497  0.49250523  0.42165302     0.07610
N1282       N  0.78286768  0.49250812  0.30421915    -0.36230
N1283       N  0.80109941  0.49256083  0.28578448    -0.28410
C1284       C  0.78938186  0.49277143  0.26227895    -0.03650
C1285       C  0.76269392  0.49286195  0.26605033     0.04960
C1286       C  0.75925638  0.49268521  0.29277852     0.03050
H1287       H  0.79962097  0.49288477  0.24380118     0.08160
H1288       H  0.74091603  0.49271542  0.30325216     0.06990
O1289       O  0.67524194  0.45495084  0.00655618    -0.73050
O1290       O  0.67521137  0.53159102  0.00653790    -0.74030
O1291       O  0.67583353  0.49326538  0.96791936    -0.62650
O1292       O  0.67541242  0.49328892  0.04514210    -0.71060
O1293       O  0.71871759  0.49331206  0.04647731    -0.70610
O1294       O  0.71914289  0.49328534  0.96691874    -0.61870
O1295       O  0.71848150  0.53338047  0.00673164    -0.74370
O1296       O  0.71851323  0.45319838  0.00675107    -0.73150
Cu1297     Cu  0.67417447  0.49327128  0.00652313     1.04560
Cu1298     Cu  0.72049142  0.49329208  0.00672088     1.04330
C1299       C  0.69625132  0.44172241  0.00670529     0.93150
C1300       C  0.69620953  0.54483655  0.00668293     0.92290
C1301       C  0.69715140  0.49328460  0.95506645     0.84430
C1302       C  0.69662922  0.49332023  0.05815112     0.90710
N1303       N  0.79596461  0.11621490  0.00771625    -0.27400
N1304       N  0.82132872  0.11180978  0.00771064    -0.35250
C1305       C  0.82569608  0.08610790  0.00768817     0.00950
C1306       C  0.80198258  0.07335459  0.00767719     0.06970
C1307       C  0.78330555  0.09302084  0.00769809    -0.06130
H1308       H  0.84491033  0.07731901  0.00767143     0.07640
H1309       H  0.76231518  0.09069663  0.00769179     0.08840
Cu1310     Cu  0.84945212  0.14037776  0.00768799     0.44170
Cu1311     Cu  0.78258808  0.15446756  0.00771987     0.41990
Cu1312     Cu  0.83581486  0.20721308  0.00765408     0.43880
N1313       N  0.87827744  0.16824052  0.00757443    -0.34780
N1314       N  0.87399433  0.19363409  0.00756583    -0.29040
C1315       C  0.89723263  0.20618710  0.00747156    -0.05140
C1316       C  0.91681158  0.18741877  0.00741233     0.07080
C1317       C  0.90395954  0.16374498  0.00748220     0.00880
H1318       H  0.89964867  0.22717472  0.00744428     0.08530
H1319       H  0.91266364  0.14448658  0.00746950     0.07610
N1320       N  0.79562094  0.21296675  0.00767114    -0.36230
N1321       N  0.77721318  0.19472107  0.00768954    -0.28410
C1322       C  0.75372373  0.20638539  0.00767202    -0.03650
C1323       C  0.75748237  0.23305451  0.00764131     0.04960
C1324       C  0.78417465  0.23657255  0.00764208     0.03050
H1325       H  0.73527202  0.19611062  0.00767568     0.08160
H1326       H  0.79461165  0.25493870  0.00761567     0.06990
N1327       N  0.69891233  0.37020038  0.00721172    -0.27400
N1328       N  0.67357525  0.37480549  0.00718566    -0.35250
C1329       C  0.66948357  0.40057083  0.00698275     0.00950
C1330       C  0.69334279  0.41312924  0.00687502     0.06970
C1331       C  0.71180092  0.39327336  0.00703343    -0.06130
H1332       H  0.65035814  0.40955200  0.00692574     0.07640
H1333       H  0.73281293  0.39538514  0.00701562     0.08840
Cu1334     Cu  0.64513509  0.34633103  0.00739178     0.44170
Cu1335     Cu  0.71212910  0.33191082  0.00743509     0.41990
Cu1336     Cu  0.65905368  0.27929964  0.00750196     0.43880
N1337       N  0.61640199  0.31815780  0.00746265    -0.34780
N1338       N  0.62085417  0.29278331  0.00748577    -0.29040
C1339       C  0.59771593  0.28003848  0.00748915    -0.05140
C1340       C  0.57797733  0.29862663  0.00746710     0.07080
C1341       C  0.59066207  0.32241967  0.00745259     0.00880
H1342       H  0.59547729  0.25903068  0.00750220     0.08530
H1343       H  0.58179108  0.34160094  0.00742438     0.07610
N1344       N  0.69921447  0.27345020  0.00754318    -0.36230
N1345       N  0.71761479  0.29169463  0.00753126    -0.28410
C1346       C  0.74110853  0.28004020  0.00756709    -0.03650
C1347       C  0.73735334  0.25336908  0.00760308     0.04960
C1348       C  0.71066026  0.24984545  0.00758688     0.03050
H1349       H  0.75955720  0.29032051  0.00756082     0.08160
H1350       H  0.70022460  0.23147871  0.00760292     0.06990
N1351       N  0.79600533  0.99326277  0.13056259    -0.27400
N1352       N  0.82136835  0.99326077  0.12615242    -0.35250
C1353       C  0.82573146  0.99326965  0.10044960     0.00950
C1354       C  0.80201473  0.99327697  0.08770371     0.06970
C1355       C  0.78334147  0.99327278  0.10737324    -0.06130
H1356       H  0.84494389  0.99326602  0.09165545     0.07640
H1357       H  0.76235061  0.99327254  0.10505479     0.08840
Cu1358     Cu  0.84948750  0.99323149  0.15472027     0.44170
Cu1359     Cu  0.78263772  0.99324124  0.16881210     0.41990
Cu1360     Cu  0.83585177  0.99319372  0.22156520     0.43880
N1361       N  0.87830740  0.99318788  0.18258376    -0.34780
N1362       N  0.87402521  0.99317607  0.20797796    -0.29040
C1363       C  0.89726309  0.99314590  0.22052870    -0.05140
C1364       C  0.91683995  0.99313705  0.20175786     0.07080
C1365       C  0.90398885  0.99316448  0.17808539     0.00880
H1366       H  0.89967999  0.99312938  0.24151628     0.08530
H1367       H  0.91269266  0.99316757  0.15882620     0.07610
N1368       N  0.79565997  0.99319204  0.22730903    -0.36230
N1369       N  0.77725886  0.99320725  0.20905830    -0.28410
C1370       C  0.75376576  0.99319124  0.22071334    -0.03650
C1371       C  0.75751515  0.99316461  0.24738177     0.04960
C1372       C  0.78420518  0.99316618  0.25091083     0.03050
H1373       H  0.73531824  0.99319607  0.21043206     0.08160
H1374       H  0.79463461  0.99314676  0.26928079     0.06990
N1375       N  0.69890180  0.99296877  0.38448649    -0.27400
N1376       N  0.67356458  0.99296691  0.38909058    -0.35250
C1377       C  0.66947141  0.99290944  0.41485675     0.00950
C1378       C  0.69333115  0.99287359  0.42741310     0.06970
C1379       C  0.71178986  0.99291446  0.40755800    -0.06130
H1380       H  0.65034596  0.99289905  0.42383930     0.07640
H1381       H  0.73280184  0.99290649  0.40966887     0.08840
Cu1382     Cu  0.64513418  0.99304159  0.36060861     0.44170
Cu1383     Cu  0.71212274  0.99303827  0.34620483     0.41990
Cu1384     Cu  0.65907064  0.99308784  0.29357541     0.43880
N1385       N  0.61641380  0.99308925  0.33242539    -0.34780
N1386       N  0.62087202  0.99309961  0.30705156    -0.29040
C1387       C  0.59773778  0.99311955  0.29430174    -0.05140
C1388       C  0.57799569  0.99312305  0.31288651     0.07080
C1389       C  0.59067359  0.99310366  0.33668212     0.00880
H1390       H  0.59550461  0.99312942  0.27329334     0.08530
H1391       H  0.58179781  0.99309545  0.35586190     0.07610
N1392       N  0.69923055  0.99310012  0.28774568    -0.36230
N1393       N  0.71762170  0.99308666  0.30599765    -0.28410
C1394       C  0.74112093  0.99310737  0.29435554    -0.03650
C1395       C  0.73737806  0.99313523  0.26768452     0.04960
C1396       C  0.71068781  0.99312967  0.26414679     0.03050
H1397       H  0.75956423  0.99310239  0.30464453     0.08160
H1398       H  0.70026179  0.99314703  0.24577511     0.06990
O1399       O  0.82043242  0.95488209  0.00761681    -0.73050
O1400       O  0.82045673  0.03164986  0.00761575    -0.74030
O1401       O  0.82047413  0.99326908  0.04599299    -0.62650
O1402       O  0.82041611  0.99326525  0.96922602    -0.71060
O1403       O  0.77712532  0.99328133  0.96770008    -0.70610
O1404       O  0.77718474  0.99328414  0.04758972    -0.61870
O1405       O  0.77716713  0.03322632  0.00765426    -0.74370
O1406       O  0.77714179  0.95333752  0.00765511    -0.73150
Cu1407     Cu  0.82167564  0.99326606  0.00761016     1.04560
Cu1408     Cu  0.77535465  0.99328279  0.00764936     1.04330
C1409       C  0.79932473  0.94177173  0.00764792     0.93150
C1410       C  0.79935813  0.04477551  0.00764548     0.92290
C1411       C  0.79938056  0.99327721  0.05912767     0.84430
C1412       C  0.79930405  0.99327411  0.95612386     0.90710
N1413       N  0.62495258  0.19431728  0.50746391    -0.27400
N1414       N  0.62072173  0.16892392  0.50753824    -0.35250
C1415       C  0.59509865  0.16427271  0.50757306     0.00950
C1416       C  0.58210904  0.18783156  0.50751780     0.06970
C1417       C  0.60161255  0.20674220  0.50744981    -0.06130
H1418       H  0.58653288  0.14495180  0.50761769     0.07640
H1419       H  0.59906788  0.22771417  0.50737258     0.08840
Cu1420     Cu  0.64933288  0.14109422  0.50754427     0.44170
Cu1421     Cu  0.66337481  0.20763968  0.50732616     0.41990
Cu1422     Cu  0.71607380  0.15387046  0.50737592     0.43880
N1423       N  0.67652412  0.11187638  0.50755357    -0.34780
N1424       N  0.70197151  0.11571058  0.50750247    -0.29040
C1425       C  0.71401154  0.09218616  0.50750790    -0.05140
C1426       C  0.69482040  0.07297060  0.50756517     0.07080
C1427       C  0.67146326  0.08629652  0.50759200     0.00880
H1428       H  0.73493454  0.08931803  0.50745766     0.08530
H1429       H  0.65203167  0.07800122  0.50762678     0.07610
N1430       N  0.72199097  0.19421545  0.50706600    -0.36230
N1431       N  0.70381514  0.21271827  0.50703873    -0.28410
C1432       C  0.71560325  0.23617521  0.50670717    -0.03650
C1433       C  0.74227487  0.23235710  0.50651398     0.04960
C1434       C  0.74564869  0.20560867  0.50675730     0.03050
H1435       H  0.70540528  0.25467396  0.50658625     0.08160
H1436       H  0.76396995  0.19510099  0.50667651     0.06990
N1437       N  0.87966483  0.29159550  0.50585223    -0.27400
N1438       N  0.88396689  0.31699411  0.50570249    -0.35250
C1439       C  0.90965074  0.32148931  0.50599146     0.00950
C1440       C  0.92253363  0.29783648  0.50633863     0.06970
C1441       C  0.90293323  0.27905942  0.50622975    -0.06130
H1442       H  0.91834242  0.34075303  0.50596220     0.07640
H1443       H  0.90536146  0.25807423  0.50643787     0.08840
Cu1444     Cu  0.85526782  0.34502246  0.50526135     0.44170
Cu1445     Cu  0.84137432  0.27797157  0.50564874     0.41990
Cu1446     Cu  0.78849199  0.33108698  0.50525585     0.43880
N1447       N  0.82731272  0.37380050  0.50531544    -0.34780
N1448       N  0.80193614  0.36945990  0.50533081    -0.29040
C1449       C  0.78936550  0.39272213  0.50554028    -0.05140
C1450       C  0.80810069  0.41237099  0.50568168     0.07080
C1451       C  0.83176708  0.39950703  0.50551944     0.00400
H1452       H  0.76838351  0.39511571  0.50562931     0.08530
H1453       H  0.85101052  0.40823003  0.50558821     0.07610
N1454       N  0.78276879  0.29074838  0.50555415    -0.36230
N1455       N  0.80103703  0.27235163  0.50569024    -0.28410
C1456       C  0.78937247  0.24881951  0.50601067    -0.03650
C1457       C  0.76267431  0.25251863  0.50609167     0.04960
C1458       C  0.75917875  0.27924673  0.50578871     0.03050
H1459       H  0.79965689  0.23036865  0.50623073     0.08160
H1460       H  0.74081328  0.28967486  0.50579380     0.06990
O1461       O  0.71851056  0.99282917  0.46746980    -0.73050
O1462       O  0.71850490  0.99281353  0.54765271    -0.74030
O1463       O  0.71898051  0.95303066  0.50754356    -0.62650
O1464       O  0.71890268  0.03258971  0.50756560    -0.71060
O1465       O  0.67559517  0.03139550  0.50756781    -0.70610
O1466       O  0.67567277  0.95417204  0.50754612    -0.61870
O1467       O  0.67523444  0.99277906  0.54587754    -0.74370
O1468       O  0.67523881  0.99279581  0.46923887    -0.73150
Cu1469     Cu  0.72050238  0.99281536  0.50755873     1.04560
Cu1470     Cu  0.67418497  0.99278210  0.50755814     1.04330
C1471       C  0.69624488  0.99282696  0.45600341     0.93150
C1472       C  0.69623585  0.99280749  0.55911729     0.92290
C1473       C  0.69694834  0.94125312  0.50753614     0.84430
C1474       C  0.69685479  0.04433843  0.50756666     0.90710
O1475       O  0.78329974  0.53263377  0.50595082    -0.73050
O1476       O  0.78337086  0.45261674  0.50595824    -0.74030
O1477       O  0.78327756  0.49261361  0.54602630    -0.62650
O1478       O  0.78339363  0.49259746  0.46600898    -0.71060
O1479       O  0.82667380  0.49264452  0.46757298    -0.70610
O1480       O  0.82655723  0.49265654  0.54458494    -0.61870
O1481       O  0.82665016  0.45415694  0.50603992    -0.74370
O1482       O  0.82658024  0.53116988  0.50603344    -0.73150
Cu1483     Cu  0.78155364  0.49261815  0.50599685     1.04560
Cu1484     Cu  0.82785230  0.49266176  0.50607081     1.04330
C1485       C  0.80545136  0.54427355  0.50591678     0.93150
C1486       C  0.80554359  0.44101936  0.50592267     0.92290
C1487       C  0.80542200  0.49261463  0.55768183     0.84430
C1488       C  0.80557381  0.49259283  0.45442771     0.90710
loop_ 
_geom_bond_atom_site_label_1 
_geom_bond_atom_site_label_2 
_geom_bond_distance 
_geom_bond_site_symmetry_2 
_ccdc_geom_bond_type 
N1            N2   1.319       .  A
N1            C5   1.353       .  A
N1           Cu9   2.079       .  S
N2            C3   1.336       .  A
N2           Cu8   2.054       .  S
C3            C4   1.380       .  A
C3            H6   1.082       .  S
C4            C5   1.390       .  A
C4          C781   1.471       .  S
C5            H7   1.082       .  S
Cu8          N11   2.054       .  S
Cu9          N19   2.084       .  S
Cu10         N12   2.078       .  S
Cu10         N18   2.082       .  S
N11          N12   1.319       .  A
N11          C15   1.335       .  A
N12          C13   1.354       .  A
C13          C14   1.390       .  A
C13          H16   1.082       .  S
C14          C15   1.379       .  A
C14         C347   1.471       .  S
C15          H17   1.082       .  S
N18          N19   1.328       .  A
N18          C22   1.344       .  A
N19          C20   1.345       .  A
C20          C21   1.380       .  A
C20          H23   1.082       .  S
C21          C22   1.380       .  A
C21          C45   1.467       .  S
C22          H24   1.082       .  S
N25          N26   1.319       .  A
N25          C29   1.353       .  A
N25         Cu33   2.079       .  S
N26          C27   1.336       .  A
N26         Cu32   2.054       .  S
C27          C28   1.380       .  A
C27          H30   1.082       .  S
C28          C29   1.390       .  A
C28         C533   1.471       .  S
C29          H31   1.082       .  S
Cu32         N35   2.054       .  S
Cu33         N43   2.083       .  S
Cu34         N36   2.078       .  S
Cu34         N42   2.082       .  S
N35          N36   1.319       .  A
N35          C39   1.335       .  A
N36          C37   1.354       .  A
C37          C38   1.390       .  A
C37          H40   1.082       .  S
C38          C39   1.379       .  A
C38         C595   1.471       .  S
C39          H41   1.082       .  S
N42          N43   1.328       .  A
N42          C46   1.344       .  A
N43          C44   1.345       .  A
C44          C45   1.380       .  A
C44          H47   1.082       .  S
C45          C46   1.380       .  A
C46          H48   1.082       .  S
N49          N50   1.319       .  A
N49          C53   1.354       .  A
N49         Cu57   2.083       .  S
N50          C51   1.336       .  A
N50         Cu56   2.056       .  S
C51          C52   1.380       .  A
C51          H54   1.082       .  S
C52          C53   1.391       .  A
C52        C1485   1.473       .  S
C53          H55   1.082       .  S
Cu56         N59   2.056       .  S
Cu57         N67   2.088       .  S
Cu58         N60   2.082       .  S
Cu58         N66   2.086       .  S
N59          N60   1.319       .  A
N59          C63   1.336       .  A
N60          C61   1.354       .  A
C61          C62   1.390       .  A
C61          H64   1.082       .  S
C62          C63   1.380       .  A
C62         C770   1.472       .  S
C63          H65   1.082       .  S
N66          N67   1.328       .  A
N66          C70   1.345       .  A
N67          C68   1.345       .  A
C68          C69   1.381       .  A
C68          H71   1.082       .  S
C69          C70   1.381       .  A
C69          C93   1.470       .  S
C70          H72   1.082       .  S
N73          N74   1.318       .  A
N73          C77   1.354       .  A
N73         Cu81   2.084       .  S
N74          C75   1.334       .  A
N74         Cu80   2.044       .  S
C75          C76   1.378       .  A
C75          H78   1.082       .  S
C76          C77   1.392       .  A
C76         C784   1.471       .  S
C77          H79   1.082       .  S
Cu80         N83   2.044       .  S
Cu81         N91   2.089       .  S
Cu82         N84   2.084       .  S
Cu82         N90   2.089       .  S
N83          N84   1.318       .  A
N83          C87   1.335       .  A
N84          C85   1.354       .  A
C85          C86   1.391       .  A
C85          H88   1.082       .  S
C86          C87   1.377       .  A
C86        C1473   1.470       .  S
C87          H89   1.082       .  S
N90          N91   1.329       .  A
N90          C94   1.345       .  A
N91          C92   1.345       .  A
C92          C93   1.380       .  A
C92          H95   1.082       .  S
C93          C94   1.381       .  A
C94          H96   1.082       .  S
N97          N98   1.319       .  A
N97         C101   1.355       .  A
N97        Cu105   2.085       .  S
N98          C99   1.336       .  A
N98        Cu104   2.057       .  S
C99         C100   1.380       .  A
C99         H102   1.082       .  S
C100        C101   1.391       .  A
C100       C1487   1.474       .  S
C101        H103   1.082       .  S
Cu104       N107   2.057       .  S
Cu105       N115   2.089       .  S
Cu106       N108   2.082       .  S
Cu106       N114   2.086       .  S
N107        N108   1.319       .  A
N107        C111   1.336       .  A
N108        C109   1.354       .  A
C109        C110   1.390       .  A
C109        H112   1.082       .  S
C110        C111   1.380       .  A
C110        C519   1.473       .  S
C111        H113   1.082       .  S
N114        N115   1.328       .  A
N114        C118   1.345       .  A
N115        C116   1.345       .  A
C116        C117   1.381       .  A
C116        H119   1.082       .  S
C117        C118   1.381       .  A
C117        C141   1.470       .  S
C118        H120   1.082       .  S
N121        N122   1.318       .  A
N121        C125   1.355       .  A
N121       Cu129   2.084       .  S
N122        C123   1.334       .  A
N122       Cu128   2.043       .  S
C123        C124   1.378       .  A
C123        H126   1.082       .  S
C124        C125   1.392       .  A
C124        C536   1.471       .  S
C125        H127   1.082       .  S
Cu128       N131   2.043       .  S
Cu129       N139   2.089       .  S
Cu130       N132   2.086       .  S
Cu130       N138   2.091       .  S
N131        N132   1.318       .  A
N131        C135   1.335       .  A
N132        C133   1.354       .  A
C133        C134   1.392       .  A
C133        H136   1.082       .  S
C134        C135   1.377       .  A
C134       C1301   1.471       .  S
C135        H137   1.082       .  S
N138        N139   1.329       .  A
N138        C142   1.346       .  A
N139        C140   1.345       .  A
C140        C141   1.380       .  A
C140        H143   1.082       .  S
C141        C142   1.381       .  A
C142        H144   1.082       .  S
N145        N146   1.319       .  A
N145        C149   1.353       .  A
N145       Cu153   2.075       .  S
N146        C147   1.335       .  A
N146       Cu152   2.054       .  S
C147        C148   1.379       .  A
C147        H150   1.082       .  S
C148        C149   1.389       .  A
C148       C1409   1.470       .  S
C149        H151   1.082       .  S
Cu152       N155   2.054       .  S
Cu153       N163   2.080       .  S
Cu154       N156   2.076       .  S
Cu154       N162   2.080       .  S
N155        N156   1.319       .  A
N155        C159   1.336       .  A
N156        C157   1.353       .  A
C157        C158   1.389       .  A
C157        H160   1.082       .  S
C158        C159   1.380       .  A
C158        C705   1.470       .  S
C159        H161   1.082       .  S
N162        N163   1.328       .  A
N162        C166   1.343       .  A
N163        C164   1.344       .  A
C164        C165   1.379       .  A
C164        H167   1.082       .  S
C165        C166   1.379       .  A
C165        C189   1.465       .  S
C166        H168   1.082       .  S
N169        N170   1.319       .  A
N169        C173   1.354       .  A
N169       Cu177   2.074       .  S
N170        C171   1.336       .  A
N170       Cu176   2.061       .  S
C171        C172   1.381       .  A
C171        H174   1.082       .  S
C172        C173   1.389       .  A
C172       C1300   1.472       .  S
C173        H175   1.082       .  S
Cu176       N179   2.061       .  S
Cu177       N187   2.078       .  S
Cu178       N180   2.075       .  S
Cu178       N186   2.079       .  S
N179        N180   1.319       .  A
N179        C183   1.337       .  A
N180        C181   1.353       .  A
C181        C182   1.389       .  A
C181        H184   1.082       .  S
C182        C183   1.381       .  A
C182        C598   1.472       .  S
C183        H185   1.082       .  S
N186        N187   1.327       .  A
N186        C190   1.344       .  A
N187        C188   1.343       .  A
C188        C189   1.379       .  A
C188        H191   1.082       .  S
C189        C190   1.379       .  A
C190        H192   1.082       .  S
N193        N194   1.319       .  A
N193        C197   1.353       .  A
N193       Cu201   2.076       .  S
N194        C195   1.335       .  A
N194       Cu200   2.054       .  S
C195        C196   1.379       .  A
C195        H198   1.082       .  S
C196        C197   1.389       .  A
C196       C1412   1.470       .  S
C197        H199   1.082       .  S
Cu200       N203   2.054       .  S
Cu201       N211   2.080       .  S
Cu202       N204   2.076       .  S
Cu202       N210   2.080       .  S
N203        N204   1.319       .  A
N203        C207   1.336       .  A
N204        C205   1.353       .  A
C205        C206   1.389       .  A
C205        H208   1.082       .  S
C206        C207   1.380       .  A
C206        C457   1.470       .  S
C207        H209   1.082       .  S
N210        N211   1.328       .  A
N210        C214   1.344       .  A
N211        C212   1.344       .  A
C212        C213   1.379       .  A
C212        H215   1.082       .  S
C213        C214   1.379       .  A
C213        C237   1.465       .  S
C214        H216   1.082       .  S
N217        N218   1.319       .  A
N217        C221   1.354       .  A
N217       Cu225   2.075       .  S
N218        C219   1.336       .  A
N218       Cu224   2.061       .  S
C219        C220   1.381       .  A
C219        H222   1.082       .  S
C220        C221   1.389       .  A
C220       C1472   1.472       .  S
C221        H223   1.082       .  S
Cu224       N227   2.061       .  S
Cu225       N235   2.079       .  S
Cu226       N228   2.076       .  S
Cu226       N234   2.080       .  S
N227        N228   1.319       .  A
N227        C231   1.337       .  A
N228        C229   1.353       .  A
C229        C230   1.389       .  A
C229        H232   1.082       .  S
C230        C231   1.381       .  A
C230        C349   1.472       .  S
C231        H233   1.082       .  S
N234        N235   1.327       .  A
N234        C238   1.344       .  A
N235        C236   1.343       .  A
C236        C237   1.379       .  A
C236        H239   1.082       .  S
C237        C238   1.379       .  A
C238        H240   1.082       .  S
N241        N242   1.319       .  A
N241        C245   1.354       .  A
N241       Cu249   2.080       .  S
N242        C243   1.336       .  A
N242       Cu248   2.053       .  S
C243        C244   1.379       .  A
C243        H246   1.082       .  S
C244        C245   1.390       .  A
C244        C708   1.471       .  S
C245        H247   1.082       .  S
Cu248       N251   2.053       .  S
Cu249       N259   2.085       .  S
Cu250       N252   2.080       .  S
Cu250       N258   2.085       .  S
N251        N252   1.319       .  A
N251        C255   1.336       .  A
N252        C253   1.354       .  A
C253        C254   1.390       .  A
C253        H256   1.082       .  S
C254        C255   1.379       .  A
C254        C459   1.472       .  S
C255        H257   1.082       .  S
N258        N259   1.328       .  A
N258        C262   1.344       .  A
N259        C260   1.344       .  A
C260        C261   1.380       .  A
C260        H263   1.082       .  S
C261        C262   1.380       .  A
C261        C285   1.468       .  S
C262        H264   1.082       .  S
N265        N266   1.319       .  A
N265        C269   1.354       .  A
N265       Cu273   2.081       .  S
N266        C267   1.336       .  A
N266       Cu272   2.057       .  S
C267        C268   1.380       .  A
C267        H270   1.082       .  S
C268        C269   1.390       .  A
C268        C767   1.473       .  S
C269        H271   1.082       .  S
Cu272       N275   2.057       .  S
Cu273       N283   2.085       .  S
Cu274       N276   2.081       .  S
Cu274       N282   2.085       .  S
N275        N276   1.319       .  A
N275        C279   1.336       .  A
N276        C277   1.354       .  A
C277        C278   1.390       .  A
C277        H280   1.082       .  S
C278        C279   1.380       .  A
C278        C522   1.473       .  S
C279        H281   1.082       .  S
N282        N283   1.328       .  A
N282        C286   1.345   1_455  A
N283        C284   1.345   1_455  A
C284        C285   1.380       .  A
C284        H287   1.082       .  S
C285        C286   1.380       .  A
C286        H288   1.082       .  S
N289        N290   1.319       .  A
N289        C293   1.353       .  A
N289       Cu297   2.080       .  S
N290        C291   1.336       .  A
N290       Cu296   2.054       .  S
C291        C292   1.380       .  A
C291        H294   1.082       .  S
C292        C293   1.390       .  A
C292       C1223   1.471       .  S
C293        H295   1.082       .  S
Cu296       N299   2.053       .  S
Cu297       N307   2.084       .  S
Cu298       N300   2.078       .  S
Cu298       N306   2.083       .  S
N299        N300   1.319       .  A
N299        C303   1.335       .  A
N300        C301   1.354       .  A
C301        C302   1.390       .  A
C301        H304   1.082       .  S
C302        C303   1.379       .  A
C302        C348   1.471       .  S
C303        H305   1.082       .  S
N306        N307   1.328       .  A
N306        C310   1.344       .  A
N307        C308   1.345       .  A
C308        C309   1.380       .  A
C308        H311   1.082       .  S
C309        C310   1.380       .  A
C309        C333   1.467       .  S
C310        H312   1.082       .  S
N313        N314   1.319       .  A
N313        C317   1.353       .  A
N313       Cu321   2.079       .  S
N314        C315   1.336       .  A
N314       Cu320   2.054       .  S
C315        C316   1.380       .  A
C315        H318   1.082       .  S
C316        C317   1.390       .  A
C316        C534   1.471       .  S
C317        H319   1.082       .  S
Cu320       N323   2.054       .  S
Cu321       N331   2.084       .  S
Cu322       N324   2.078       .  S
Cu322       N330   2.083       .  S
N323        N324   1.319       .  A
N323        C327   1.335       .  A
N324        C325   1.354       .  A
C325        C326   1.390       .  A
C325        H328   1.082       .  S
C326        C327   1.379       .  A
C326        C857   1.471       .  S
C327        H329   1.082       .  S
N330        N331   1.328       .  A
N330        C334   1.344       .  A
N331        C332   1.345       .  A
C332        C333   1.380       .  A
C332        H335   1.082       .  S
C333        C334   1.380       .  A
C334        H336   1.082       .  S
O337       Cu345   1.968       .  S
O337        C347   1.273       .  A
O338       Cu345   1.968   1_545  S
O338        C348   1.273       .  A
O339       Cu345   1.969       .  S
O339        C349   1.273       .  A
O340       Cu345   1.968       .  S
O340        C350   1.273       .  A
O341       Cu346   2.052       .  S
O341        C350   1.282       .  A
O342       Cu346   2.051       .  S
O342        C349   1.282       .  A
O343       Cu346   2.049   1_545  S
O343        C348   1.282       .  A
O344       Cu346   2.049       .  S
O344        C347   1.282       .  A
Cu345      Cu346   2.372       .  S
C350        C436   1.472       .  S
N351        N352   1.319       .  A
N351        C355   1.354       .  A
N351       Cu359   2.080       .  S
N352        C353   1.335       .  A
N352       Cu358   2.053       .  S
C353        C354   1.379       .  A
C353        H356   1.082       .  S
C354        C355   1.390       .  A
C354       C1121   1.471       .  S
C355        H357   1.082       .  S
Cu358       N361   2.053       .  S
Cu359       N369   2.084       .  S
Cu360       N362   2.080       .  S
Cu360       N368   2.084       .  S
N361        N362   1.319       .  A
N361        C365   1.336       .  A
N362        C363   1.354       .  A
C363        C364   1.390       .  A
C363        H366   1.082       .  S
C364        C365   1.379       .  A
C364        C460   1.471       .  S
C365        H367   1.082       .  S
N368        N369   1.328       .  A
N368        C372   1.344       .  A
N369        C370   1.344       .  A
C370        C371   1.380       .  A
C370        H373   1.082       .  S
C371        C372   1.380       .  A
C371        C395   1.468       .  S
C372        H374   1.082       .  S
N375        N376   1.319       .  A
N375        C379   1.354       .  A
N375       Cu383   2.080       .  S
N376        C377   1.336       .  A
N376       Cu382   2.057       .  S
C377        C378   1.380       .  A
C377        H380   1.082       .  S
C378        C379   1.390       .  A
C378        C921   1.473       .  S
C379        H381   1.082       .  S
Cu382       N385   2.057       .  S
Cu383       N393   2.084       .  S
Cu384       N386   2.080       .  S
Cu384       N392   2.084       .  S
N385        N386   1.319       .  A
N385        C389   1.336       .  A
N386        C387   1.354       .  A
C387        C388   1.390       .  A
C387        H390   1.082       .  S
C388        C389   1.380       .  A
C388        C521   1.473       .  S
C389        H391   1.082       .  S
N392        N393   1.328       .  A
N392        C396   1.344   1_455  A
N393        C394   1.344   1_455  A
C394        C395   1.380       .  A
C394        H397   1.082       .  S
C395        C396   1.380       .  A
C396        H398   1.082       .  S
N399        N400   1.319       .  A
N399        C403   1.354       .  A
N399       Cu407   2.082       .  S
N400        C401   1.336       .  A
N400       Cu406   2.054       .  S
C401        C402   1.379       .  A
C401        H404   1.082       .  S
C402        C403   1.390       .  A
C402        C458   1.472       .  S
C403        H405   1.082       .  S
Cu406       N409   2.054       .  S
Cu407       N417   2.086       .  S
Cu408       N410   2.083       .  S
Cu408       N416   2.087       .  S
N409        N410   1.319       .  A
N409        C413   1.336       .  A
N410        C411   1.354       .  A
C411        C412   1.391       .  A
C411        H414   1.082       .  S
C412        C413   1.380       .  A
C412       C1107   1.473       .  S
C413        H415   1.082       .  S
N416        N417   1.328       .  A
N416        C420   1.345       .  A
N417        C418   1.345       .  A
C418        C419   1.381       .  A
C418        H421   1.082       .  S
C419        C420   1.381       .  A
C419        C443   1.469       .  S
C420        H422   1.082       .  S
N423        N424   1.319       .  A
N423        C427   1.354       .  A
N423       Cu431   2.084       .  S
N424        C425   1.336       .  A
N424       Cu430   2.053       .  S
C425        C426   1.379       .  A
C425        H428   1.082       .  S
C426        C427   1.391       .  A
C426        C933   1.473       .  S
C427        H429   1.082       .  S
Cu430       N433   2.053       .  S
Cu431       N441   2.089       .  S
Cu432       N434   2.082       .  S
Cu432       N440   2.086       .  S
N433        N434   1.319       .  A
N433        C437   1.335       .  A
N434        C435   1.355       .  A
C435        C436   1.391       .  A
C435        H438   1.082       .  S
C436        C437   1.379       .  A
C437        H439   1.082       .  S
N440        N441   1.328       .  A
N440        C444   1.344       .  A
N441        C442   1.345       .  A
C442        C443   1.381       .  A
C442        H445   1.082       .  S
C443        C444   1.380       .  A
C444        H446   1.082       .  S
O447       Cu455   2.047       .  S
O447        C457   1.282       .  A
O448       Cu455   2.050   1_455  S
O448        C458   1.282       .  A
O449       Cu455   2.048       .  S
O449        C459   1.282       .  A
O450       Cu455   2.048   1_545  S
O450        C460   1.282       .  A
O451       Cu456   1.971   1_545  S
O451        C460   1.273       .  A
O452       Cu456   1.971       .  S
O452        C459   1.274       .  A
O453       Cu456   1.970   1_455  S
O453        C458   1.273       .  A
O454       Cu456   1.970       .  S
O454        C457   1.273       .  A
Cu455      Cu456   2.373       .  S
N461        N462   1.319       .  A
N461        C465   1.353       .  A
N461       Cu469   2.079       .  S
N462        C463   1.336       .  A
N462       Cu468   2.051       .  S
C463        C464   1.379       .  A
C463        H466   1.082       .  S
C464        C465   1.390       .  A
C464       C1209   1.470       .  S
C465        H467   1.082       .  S
Cu468       N471   2.051       .  S
Cu469       N479   2.083       .  S
Cu470       N472   2.080       .  S
Cu470       N478   2.084       .  S
N471        N472   1.319       .  A
N471        C475   1.335       .  A
N472        C473   1.354       .  A
C473        C474   1.391       .  A
C473        H476   1.082       .  S
C474        C475   1.379       .  A
C474        C520   1.471       .  S
C475        H477   1.082       .  S
N478        N479   1.328       .  A
N478        C482   1.343       .  A
N479        C480   1.345       .  A
C480        C481   1.380       .  A
C480        H483   1.082       .  S
C481        C482   1.380       .  A
C481        C505   1.467       .  S
C482        H484   1.082       .  S
N485        N486   1.319       .  A
N485        C489   1.354       .  A
N485       Cu493   2.076       .  S
N486        C487   1.335       .  A
N486       Cu492   2.055       .  S
C487        C488   1.380       .  A
C487        H490   1.082       .  S
C488        C489   1.389       .  A
C488       C1197   1.471       .  S
C489        H491   1.082       .  S
Cu492       N495   2.055       .  S
Cu493       N503   2.080       .  S
Cu494       N496   2.079       .  S
Cu494       N502   2.084       .  S
N495        N496   1.319       .  A
N495        C499   1.337       .  A
N496        C497   1.353       .  A
C497        C498   1.389       .  A
C497        H500   1.082       .  S
C498        C499   1.380       .  A
C498        C535   1.471       .  S
C499        H501   1.082       .  S
N502        N503   1.328       .  A
N502        C506   1.345       .  A
N503        C504   1.343       .  A
C504        C505   1.379       .  A
C504        H507   1.082       .  S
C505        C506   1.381       .  A
C506        H508   1.082       .  S
O509       Cu517   1.972   1_655  S
O509        C519   1.273       .  A
O510       Cu517   1.970       .  S
O510        C520   1.273       .  A
O511       Cu517   1.971       .  S
O511        C521   1.273       .  A
O512       Cu517   1.971       .  S
O512        C522   1.273       .  A
O513       Cu518   2.051       .  S
O513        C522   1.282       .  A
O514       Cu518   2.051       .  S
O514        C521   1.282       .  A
O515       Cu518   2.049       .  S
O515        C520   1.281       .  A
O516       Cu518   2.050   1_655  S
O516        C519   1.282       .  A
Cu517      Cu518   2.372       .  S
O523       Cu531   2.048       .  S
O523        C533   1.282       .  A
O524       Cu531   2.048       .  S
O524        C534   1.282       .  A
O525       Cu531   2.044       .  S
O525        C535   1.281       .  A
O526       Cu531   2.045       .  S
O526        C536   1.281       .  A
O527       Cu532   1.973       .  S
O527        C536   1.274       .  A
O528       Cu532   1.975       .  S
O528        C535   1.274       .  A
O529       Cu532   1.971       .  S
O529        C534   1.273       .  A
O530       Cu532   1.971       .  S
O530        C533   1.273       .  A
Cu531      Cu532   2.373       .  S
N537        N538   1.319       .  A
N537        C541   1.353       .  A
N537       Cu545   2.080       .  S
N538        C539   1.336       .  A
N538       Cu544   2.053       .  S
C539        C540   1.380       .  A
C539        H542   1.082       .  S
C540        C541   1.390       .  A
C540       C1237   1.471       .  S
C541        H543   1.082       .  S
Cu544       N547   2.053       .  S
Cu545       N555   2.084       .  S
Cu546       N548   2.078       .  S
Cu546       N554   2.083       .  S
N547        N548   1.319       .  A
N547        C551   1.335       .  A
N548        C549   1.354       .  A
C549        C550   1.390       .  A
C549        H552   1.082       .  S
C550        C551   1.379       .  A
C550        C596   1.471       .  S
C551        H553   1.082       .  S
N554        N555   1.328       .  A
N554        C558   1.344       .  A
N555        C556   1.345       .  A
C556        C557   1.380       .  A
C556        H559   1.082       .  S
C557        C558   1.380       .  A
C557        C581   1.467       .  S
C558        H560   1.082       .  S
N561        N562   1.319       .  A
N561        C565   1.353       .  A
N561       Cu569   2.079       .  S
N562        C563   1.336       .  A
N562       Cu568   2.054       .  S
C563        C564   1.380       .  A
C563        H566   1.082       .  S
C564        C565   1.390       .  A
C564        C782   1.471       .  S
C565        H567   1.082       .  S
Cu568       N571   2.054       .  S
Cu569       N579   2.084       .  S
Cu570       N572   2.078       .  S
Cu570       N578   2.083       .  S
N571        N572   1.319       .  A
N571        C575   1.335       .  A
N572        C573   1.354       .  A
C573        C574   1.390       .  A
C573        H576   1.082       .  S
C574        C575   1.379       .  A
C574        C843   1.471       .  S
C575        H577   1.082       .  S
N578        N579   1.328       .  A
N578        C582   1.344       .  A
N579        C580   1.345       .  A
C580        C581   1.380       .  A
C580        H583   1.082       .  S
C581        C582   1.380       .  A
C582        H584   1.082       .  S
O585       Cu593   1.968   1_556  S
O585        C595   1.273       .  A
O586       Cu593   1.968       .  S
O586        C596   1.273       .  A
O587       Cu593   1.968       .  S
O587        C597   1.273       .  A
O588       Cu593   1.969       .  S
O588        C598   1.273       .  A
O589       Cu594   2.051       .  S
O589        C598   1.282       .  A
O590       Cu594   2.052       .  S
O590        C597   1.282       .  A
O591       Cu594   2.049       .  S
O591        C596   1.282       .  A
O592       Cu594   2.049   1_556  S
O592        C595   1.282       .  A
Cu593      Cu594   2.372       .  S
C597        C636   1.472       .  S
N599        N600   1.319       .  A
N599        C603   1.354       .  A
N599       Cu607   2.082       .  S
N600        C601   1.336       .  A
N600       Cu606   2.054       .  S
C601        C602   1.379       .  A
C601        H604   1.082       .  S
C602        C603   1.391       .  A
C602        C706   1.472       .  S
C603        H605   1.082       .  S
Cu606       N609   2.054       .  S
Cu607       N617   2.086       .  S
Cu608       N610   2.083       .  S
Cu608       N616   2.087       .  S
N609        N610   1.319       .  A
N609        C613   1.336       .  A
N610        C611   1.354       .  A
C611        C612   1.391       .  A
C611        H614   1.082       .  S
C612        C613   1.380       .  A
C612       C1105   1.473       .  S
C613        H615   1.082       .  S
N616        N617   1.328       .  A
N616        C620   1.345       .  A
N617        C618   1.345       .  A
C618        C619   1.381       .  A
C618        H621   1.082       .  S
C619        C620   1.381       .  A
C619        C643   1.469       .  S
C620        H622   1.082       .  S
N623        N624   1.319       .  A
N623        C627   1.354       .  A
N623       Cu631   2.084       .  S
N624        C625   1.336       .  A
N624       Cu630   2.054       .  S
C625        C626   1.379       .  A
C625        H628   1.082       .  S
C626        C627   1.391       .  A
C626       C1195   1.473       .  S
C627        H629   1.082       .  S
Cu630       N633   2.053       .  S
Cu631       N641   2.088       .  S
Cu632       N634   2.081       .  S
Cu632       N640   2.086       .  S
N633        N634   1.319       .  A
N633        C637   1.335       .  A
N634        C635   1.355       .  A
C635        C636   1.391       .  A
C635        H638   1.082       .  S
C636        C637   1.379       .  A
C637        H639   1.082       .  S
N640        N641   1.328       .  A
N640        C644   1.344       .  A
N641        C642   1.345       .  A
C642        C643   1.381       .  A
C642        H645   1.082       .  S
C643        C644   1.380       .  A
C644        H646   1.082       .  S
N647        N648   1.319       .  A
N647        C651   1.354       .  A
N647       Cu655   2.078       .  S
N648        C649   1.335       .  A
N648       Cu654   2.054       .  S
C649        C650   1.379       .  A
C649        H652   1.082       .  S
C650        C651   1.390       .  A
C650       C1094   1.471       .  S
C651        H653   1.082       .  S
Cu654       N657   2.054       .  S
Cu655       N665   2.083       .  S
Cu656       N658   2.079       .  S
Cu656       N664   2.083       .  S
N657        N658   1.319       .  A
N657        C661   1.336       .  A
N658        C659   1.354       .  A
C659        C660   1.390       .  A
C659        H662   1.082       .  S
C660        C661   1.380       .  A
C660        C707   1.471       .  S
C661        H663   1.082       .  S
N664        N665   1.328       .  A
N664        C668   1.344       .  A
N665        C666   1.344       .  A
C666        C667   1.380       .  A
C666        H669   1.082       .  S
C667        C668   1.380       .  A
C667        C691   1.467       .  S
C668        H670   1.082       .  S
N671        N672   1.319       .  A
N671        C675   1.354       .  A
N671       Cu679   2.078       .  S
N672        C673   1.336       .  A
N672       Cu678   2.058       .  S
C673        C674   1.380       .  A
C673        H676   1.082       .  S
C674        C675   1.390       .  A
C674       C1181   1.472       .  S
C675        H677   1.082       .  S
Cu678       N681   2.058       .  S
Cu679       N689   2.083       .  S
Cu680       N682   2.079       .  S
Cu680       N688   2.083       .  S
N681        N682   1.319       .  A
N681        C685   1.336       .  A
N682        C683   1.354       .  A
C683        C684   1.390       .  A
C683        H686   1.082       .  S
C684        C685   1.380       .  A
C684        C768   1.472       .  S
C685        H687   1.082       .  S
N688        N689   1.328       .  A
N688        C692   1.344   1_455  A
N689        C690   1.344   1_455  A
C690        C691   1.380       .  A
C690        H693   1.082       .  S
C691        C692   1.380       .  A
C692        H694   1.082       .  S
O695       Cu703   2.047       .  S
O695        C705   1.281       .  A
O696       Cu703   2.050   1_455  S
O696        C706   1.282       .  A
O697       Cu703   2.048       .  S
O697        C707   1.282       .  A
O698       Cu703   2.048   1_556  S
O698        C708   1.282       .  A
O699       Cu704   1.971   1_556  S
O699        C708   1.273       .  A
O700       Cu704   1.971       .  S
O700        C707   1.273       .  A
O701       Cu704   1.970   1_455  S
O701        C706   1.273       .  A
O702       Cu704   1.970       .  S
O702        C705   1.273       .  A
Cu703      Cu704   2.373       .  S
N709        N710   1.319       .  A
N709        C713   1.353       .  A
N709       Cu717   2.078       .  S
N710        C711   1.336       .  A
N710       Cu716   2.051       .  S
C711        C712   1.379       .  A
C711        H714   1.082       .  S
C712        C713   1.390       .  A
C712       C1212   1.470       .  S
C713        H715   1.082       .  S
Cu716       N719   2.051       .  S
Cu717       N727   2.083       .  S
Cu718       N720   2.079       .  S
Cu718       N726   2.083       .  S
N719        N720   1.319       .  A
N719        C723   1.335       .  A
N720        C721   1.354       .  A
C721        C722   1.391       .  A
C721        H724   1.082       .  S
C722        C723   1.379       .  A
C722        C769   1.471       .  S
C723        H725   1.082       .  S
N726        N727   1.328       .  A
N726        C730   1.343       .  A
N727        C728   1.345       .  A
C728        C729   1.380       .  A
C728        H731   1.082       .  S
C729        C730   1.379       .  A
C729        C753   1.466       .  S
C730        H732   1.082       .  S
N733        N734   1.319       .  A
N733        C737   1.354       .  A
N733       Cu741   2.075       .  S
N734        C735   1.335       .  A
N734       Cu740   2.055       .  S
C735        C736   1.380       .  A
C735        H738   1.082       .  S
C736        C737   1.389       .  A
C736        C935   1.471       .  S
C737        H739   1.082       .  S
Cu740       N743   2.056       .  S
Cu741       N751   2.080       .  S
Cu742       N744   2.078       .  S
Cu742       N750   2.083       .  S
N743        N744   1.319       .  A
N743        C747   1.337       .  A
N744        C745   1.353       .  A
C745        C746   1.389       .  A
C745        H748   1.082       .  S
C746        C747   1.380       .  A
C746        C783   1.471       .  S
C747        H749   1.082       .  S
N750        N751   1.327       .  A
N750        C754   1.345       .  A
N751        C752   1.343       .  A
C752        C753   1.379       .  A
C752        H755   1.082       .  S
C753        C754   1.380       .  A
C754        H756   1.082       .  S
O757       Cu765   1.971       .  S
O757        C767   1.273       .  A
O758       Cu765   1.970       .  S
O758        C768   1.273       .  A
O759       Cu765   1.970       .  S
O759        C769   1.273       .  A
O760       Cu765   1.972   1_655  S
O760        C770   1.273       .  A
O761       Cu766   2.049   1_655  S
O761        C770   1.282       .  A
O762       Cu766   2.048       .  S
O762        C769   1.281       .  A
O763       Cu766   2.051       .  S
O763        C768   1.282       .  A
O764       Cu766   2.052       .  S
O764        C767   1.282       .  A
Cu765      Cu766   2.372       .  S
O771       Cu779   1.972       .  S
O771        C781   1.273       .  A
O772       Cu779   1.972       .  S
O772        C782   1.273       .  A
O773       Cu779   1.974       .  S
O773        C783   1.274       .  A
O774       Cu779   1.972       .  S
O774        C784   1.274       .  A
O775       Cu780   2.046       .  S
O775        C784   1.281       .  A
O776       Cu780   2.045       .  S
O776        C783   1.281       .  A
O777       Cu780   2.047       .  S
O777        C782   1.282       .  A
O778       Cu780   2.048       .  S
O778        C781   1.282       .  A
Cu779      Cu780   2.373       .  S
N785        N786   1.319       .  A
N785        C789   1.353       .  A
N785       Cu793   2.080       .  S
N786        C787   1.336       .  A
N786       Cu792   2.054       .  S
C787        C788   1.380       .  A
C787        H790   1.082       .  S
C788        C789   1.390       .  A
C788       C1224   1.471       .  S
C789        H791   1.082       .  S
Cu792       N795   2.053       .  S
Cu793       N803   2.084       .  S
Cu794       N796   2.079       .  S
Cu794       N802   2.083       .  S
N795        N796   1.319       .  A
N795        C799   1.335       .  A
N796        C797   1.354       .  A
C797        C798   1.390       .  A
C797        H800   1.082       .  S
C798        C799   1.379       .  A
C798        C844   1.471       .  S
C799        H801   1.082       .  S
N802        N803   1.328       .  A
N802        C806   1.344       .  A
N803        C804   1.345       .  A
C804        C805   1.380       .  A
C804        H807   1.082       .  S
C805        C806   1.380       .  A
C805        C829   1.467       .  S
C806        H808   1.082       .  S
N809        N810   1.319       .  A
N809        C813   1.353       .  A
N809       Cu817   2.080       .  S
N810        C811   1.336       .  A
N810       Cu816   2.053       .  S
C811        C812   1.380       .  A
C811        H814   1.082       .  S
C812        C813   1.390       .  A
C812       C1238   1.471       .  S
C813        H815   1.082       .  S
Cu816       N819   2.053       .  S
Cu817       N827   2.084       .  S
Cu818       N820   2.079       .  S
Cu818       N826   2.083       .  S
N819        N820   1.319       .  A
N819        C823   1.335       .  A
N820        C821   1.354       .  A
C821        C822   1.390       .  A
C821        H824   1.082       .  S
C822        C823   1.379       .  A
C822        C858   1.471       .  S
C823        H825   1.082       .  S
N826        N827   1.328       .  A
N826        C830   1.344       .  A
N827        C828   1.345       .  A
C828        C829   1.380       .  A
C828        H831   1.082       .  S
C829        C830   1.380       .  A
C830        H832   1.082       .  S
O833       Cu841   2.049       .  S
O833        C843   1.282       .  A
O834       Cu841   2.049   1_545  S
O834        C844   1.282       .  A
O835       Cu841   2.051       .  S
O835        C845   1.282       .  A
O836       Cu841   2.053       .  S
O836        C846   1.282       .  A
O837       Cu842   1.968       .  S
O837        C846   1.273       .  A
O838       Cu842   1.969       .  S
O838        C845   1.273       .  A
O839       Cu842   1.968   1_545  S
O839        C844   1.273       .  A
O840       Cu842   1.968       .  S
O840        C843   1.273       .  A
Cu841      Cu842   2.372       .  S
C845       C1388   1.472       .  S
C846       C1012   1.472       .  S
O847       Cu855   2.049   1_556  S
O847        C857   1.282       .  A
O848       Cu855   2.049       .  S
O848        C858   1.282       .  A
O849       Cu855   2.053       .  S
O849        C859   1.282       .  A
O850       Cu855   2.051       .  S
O850        C860   1.282       .  A
O851       Cu856   1.969       .  S
O851        C860   1.273       .  A
O852       Cu856   1.968       .  S
O852        C859   1.273       .  A
O853       Cu856   1.968       .  S
O853        C858   1.273       .  A
O854       Cu856   1.969   1_556  S
O854        C857   1.273       .  A
Cu855      Cu856   2.372       .  S
C859        C974   1.472       .  S
C860       C1340   1.472       .  S
N861        N862   1.319       .  A
N861        C865   1.353       .  A
N861       Cu869   2.078       .  S
N862        C863   1.336       .  A
N862       Cu868   2.051       .  S
C863        C864   1.379       .  A
C863        H866   1.082       .  S
C864        C865   1.390       .  A
C864       C1211   1.470       .  S
C865        H867   1.082       .  S
Cu868       N871   2.051       .  S
Cu869       N879   2.083       .  S
Cu870       N872   2.078       .  S
Cu870       N878   2.082       .  S
N871        N872   1.318       .  A
N871        C875   1.335       .  A
N872        C873   1.354       .  A
C873        C874   1.390       .  A
C873        H876   1.082       .  S
C874        C875   1.379       .  A
C874        C919   1.471       .  S
C875        H877   1.082       .  S
N878        N879   1.328       .  A
N878        C882   1.343       .  A
N879        C880   1.345       .  A
C880        C881   1.380       .  A
C880        H883   1.082       .  S
C881        C882   1.379       .  A
C881        C905   1.466       .  S
C882        H884   1.082       .  S
N885        N886   1.319       .  A
N885        C889   1.353       .  A
N885       Cu893   2.078       .  S
N886        C887   1.337       .  A
N886       Cu892   2.056       .  S
C887        C888   1.380       .  A
C887        H890   1.082       .  S
C888        C889   1.389       .  A
C888       C1225   1.470       .  S
C889        H891   1.082       .  S
Cu892       N895   2.055       .  S
Cu893       N903   2.082       .  S
Cu894       N896   2.075       .  S
Cu894       N902   2.080       .  S
N895        N896   1.319       .  A
N895        C899   1.335       .  A
N896        C897   1.354       .  A
C897        C898   1.389       .  A
C897        H900   1.082       .  S
C898        C899   1.380       .  A
C898        C936   1.471       .  S
C899        H901   1.082       .  S
N902        N903   1.327       .  A
N902        C906   1.343       .  A
N903        C904   1.345       .  A
C904        C905   1.380       .  A
C904        H907   1.082       .  S
C905        C906   1.379       .  A
C906        H908   1.082       .  S
O909       Cu917   1.970       .  S
O909        C919   1.273       .  A
O910       Cu917   1.971   1_655  S
O910        C920   1.274       .  A
O911       Cu917   1.970       .  S
O911        C921   1.273       .  A
O912       Cu917   1.970       .  S
O912        C922   1.273       .  A
O913       Cu918   2.051       .  S
O913        C922   1.282       .  A
O914       Cu918   2.052       .  S
O914        C921   1.282       .  A
O915       Cu918   2.049   1_655  S
O915        C920   1.282       .  A
O916       Cu918   2.048       .  S
O916        C919   1.281       .  A
Cu917      Cu918   2.372       .  S
C920       C1440   1.472       .  S
C922       C1070   1.472       .  S
O923       Cu931   2.046       .  S
O923        C933   1.281       .  A
O924       Cu931   2.046       .  S
O924        C934   1.281       .  A
O925       Cu931   2.053       .  S
O925        C935   1.282       .  A
O926       Cu931   2.053   1_545  S
O926        C936   1.282       .  A
O927       Cu932   1.962   1_545  S
O927        C936   1.272       .  A
O928       Cu932   1.962       .  S
O928        C935   1.272       .  A
O929       Cu932   1.978       .  S
O929        C934   1.274       .  A
O930       Cu932   1.978       .  S
O930        C933   1.274       .  A
Cu931      Cu932   2.372       .  S
C934       C1022   1.473       .  S
N937        N938   1.319       .  A
N937        C941   1.354       .  A
N937       Cu945   2.082       .  S
N938        C939   1.336       .  A
N938       Cu944   2.054       .  S
C939        C940   1.379       .  A
C939        H942   1.082       .  S
C940        C941   1.391       .  A
C940       C1119   1.472       .  S
C941        H943   1.082       .  S
Cu944       N947   2.054       .  S
Cu945       N955   2.086       .  S
Cu946       N948   2.083       .  S
Cu946       N954   2.087       .  S
N947        N948   1.319       .  A
N947        C951   1.336       .  A
N948        C949   1.354       .  A
C949        C950   1.391       .  A
C949        H952   1.082       .  S
C950        C951   1.380       .  A
C950       C1106   1.473       .  S
C951        H953   1.082       .  S
N954        N955   1.328       .  A
N954        C958   1.345       .  A
N955        C956   1.345       .  A
C956        C957   1.381       .  A
C956        H959   1.082       .  S
C957        C958   1.381       .  A
C957        C981   1.469       .  S
C958        H960   1.082       .  S
N961        N962   1.319       .  A
N961        C965   1.354       .  A
N961       Cu969   2.084       .  S
N962        C963   1.337       .  A
N962       Cu968   2.054       .  S
C963        C964   1.379       .  A
C963        H966   1.082       .  S
C964        C965   1.391       .  A
C964       C1196   1.473       .  S
C965        H967   1.082       .  S
Cu968       N971   2.054       .  S
Cu969       N979   2.088       .  S
Cu970       N972   2.082       .  S
Cu970       N978   2.086       .  S
N971        N972   1.319       .  A
N971        C975   1.335       .  A
N972        C973   1.355       .  A
C973        C974   1.391       .  A
C973        H976   1.082       .  S
C974        C975   1.379       .  A
C975        H977   1.082       .  S
N978        N979   1.328       .  A
N978        C982   1.344       .  A
N979        C980   1.345       .  A
C980        C981   1.381       .  A
C980        H983   1.082       .  S
C981        C982   1.380       .  A
C982        H984   1.082       .  S
N985        N986   1.319       .  A
N985        C989   1.354       .  A
N985       Cu993   2.082       .  S
N986        C987   1.336       .  A
N986       Cu992   2.054       .  S
C987        C988   1.379       .  A
C987        H990   1.082       .  S
C988        C989   1.391       .  A
C988       C1091   1.472       .  S
C989        H991   1.082       .  S
Cu992       N995   2.054       .  S
Cu993      N1003   2.086       .  S
Cu994       N996   2.082       .  S
Cu994      N1002   2.087       .  S
N995        N996   1.319       .  A
N995        C999   1.336       .  A
N996        C997   1.354       .  A
C997        C998   1.391       .  A
C997       H1000   1.082       .  S
C998        C999   1.380       .  A
C998       C1108   1.473       .  S
C999       H1001   1.082       .  S
N1002      N1003   1.328       .  A
N1002      C1006   1.345       .  A
N1003      C1004   1.345       .  A
C1004      C1005   1.381       .  A
C1004      H1007   1.082       .  S
C1005      C1006   1.381       .  A
C1005      C1029   1.469       .  S
C1006      H1008   1.082       .  S
N1009      N1010   1.319       .  A
N1009      C1013   1.355       .  A
N1009     Cu1017   2.081       .  S
N1010      C1011   1.335       .  A
N1010     Cu1016   2.054       .  S
C1011      C1012   1.379       .  A
C1011      H1014   1.082       .  S
C1012      C1013   1.391       .  A
C1013      H1015   1.082       .  S
Cu1016     N1019   2.054       .  S
Cu1017     N1027   2.086       .  S
Cu1018     N1020   2.084       .  S
Cu1018     N1026   2.088       .  S
N1019      N1020   1.319       .  A
N1019      C1023   1.337       .  A
N1020      C1021   1.354       .  A
C1021      C1022   1.391       .  A
C1021      H1024   1.082       .  S
C1022      C1023   1.379       .  A
C1023      H1025   1.082       .  S
N1026      N1027   1.328       .  A
N1026      C1030   1.345       .  A
N1027      C1028   1.344       .  A
C1028      C1029   1.380       .  A
C1028      H1031   1.082       .  S
C1029      C1030   1.381       .  A
C1030      H1032   1.082       .  S
N1033      N1034   1.319       .  A
N1033      C1037   1.354       .  A
N1033     Cu1041   2.078       .  S
N1034      C1035   1.336       .  A
N1034     Cu1040   2.054       .  S
C1035      C1036   1.380       .  A
C1035      H1038   1.082       .  S
C1036      C1037   1.390       .  A
C1036      C1093   1.471       .  S
C1037      H1039   1.082       .  S
Cu1040     N1043   2.054       .  S
Cu1041     N1051   2.082       .  S
Cu1042     N1044   2.078       .  S
Cu1042     N1050   2.082       .  S
N1043      N1044   1.319       .  A
N1043      C1047   1.336       .  A
N1044      C1045   1.353       .  A
C1045      C1046   1.390       .  A
C1045      H1048   1.082       .  S
C1046      C1047   1.380       .  A
C1046      C1122   1.471       .  S
C1047      H1049   1.082       .  S
N1050      N1051   1.328       .  A
N1050      C1054   1.344       .  A
N1051      C1052   1.344       .  A
C1052      C1053   1.380       .  A
C1052      H1055   1.082       .  S
C1053      C1054   1.380       .  A
C1053      C1077   1.466       .  S
C1054      H1056   1.082       .  S
N1057      N1058   1.319       .  A
N1057      C1061   1.354       .  A
N1057     Cu1065   2.078       .  S
N1058      C1059   1.336       .  A
N1058     Cu1064   2.058       .  S
C1059      C1060   1.380       .  A
C1059      H1062   1.082       .  S
C1060      C1061   1.390       .  A
C1060      C1182   1.472       .  S
C1061      H1063   1.082       .  S
Cu1064     N1067   2.058       .  S
Cu1065     N1075   2.082       .  S
Cu1066     N1068   2.078       .  S
Cu1066     N1074   2.082       .  S
N1067      N1068   1.319       .  A
N1067      C1071   1.336       .  A
N1068      C1069   1.354       .  A
C1069      C1070   1.390       .  A
C1069      H1072   1.082       .  S
C1070      C1071   1.380       .  A
C1071      H1073   1.082       .  S
N1074      N1075   1.328       .  A
N1074      C1078   1.344       .  A
N1075      C1076   1.344       .  A
C1076      C1077   1.380   1_455  A
C1076      H1079   1.082   1_455  S
C1077      C1078   1.380   1_655  A
C1078      H1080   1.082   1_455  S
O1081     Cu1089   1.971   1_455  S
O1081      C1091   1.273       .  A
O1082     Cu1089   1.970       .  S
O1082      C1092   1.273       .  A
O1083     Cu1089   1.969   1_545  S
O1083      C1093   1.273       .  A
O1084     Cu1089   1.969       .  S
O1084      C1094   1.273       .  A
O1085     Cu1090   2.048       .  S
O1085      C1094   1.282       .  A
O1086     Cu1090   2.048   1_545  S
O1086      C1093   1.282       .  A
O1087     Cu1090   2.046       .  S
O1087      C1092   1.281       .  A
O1088     Cu1090   2.050   1_455  S
O1088      C1091   1.282       .  A
Cu1089    Cu1090   2.373       .  S
C1092      C1364   1.470       .  S
O1095     Cu1103   1.973       .  S
O1095      C1105   1.274       .  A
O1096     Cu1103   1.973   1_545  S
O1096      C1106   1.274       .  A
O1097     Cu1103   1.973   1_556  S
O1097      C1107   1.274       .  A
O1098     Cu1103   1.973       .  S
O1098      C1108   1.274       .  A
O1099     Cu1104   2.050       .  S
O1099      C1108   1.282       .  A
O1100     Cu1104   2.050   1_556  S
O1100      C1107   1.282       .  A
O1101     Cu1104   2.050   1_545  S
O1101      C1106   1.282       .  A
O1102     Cu1104   2.050       .  S
O1102      C1105   1.282       .  A
Cu1103    Cu1104   2.372       .  S
O1109     Cu1117   1.971   1_455  S
O1109      C1119   1.273       .  A
O1110     Cu1117   1.970       .  S
O1110      C1120   1.273       .  A
O1111     Cu1117   1.970   1_556  S
O1111      C1121   1.273       .  A
O1112     Cu1117   1.970       .  S
O1112      C1122   1.273       .  A
O1113     Cu1118   2.048       .  S
O1113      C1122   1.282       .  A
O1114     Cu1118   2.049   1_556  S
O1114      C1121   1.282       .  A
O1115     Cu1118   2.046       .  S
O1115      C1120   1.281       .  A
O1116     Cu1118   2.050   1_455  S
O1116      C1119   1.282       .  A
Cu1117    Cu1118   2.373       .  S
C1120      C1316   1.470       .  S
N1123      N1124   1.319       .  A
N1123      C1127   1.353       .  A
N1123     Cu1131   2.078       .  S
N1124      C1125   1.336       .  A
N1124     Cu1130   2.051       .  S
C1125      C1126   1.379       .  A
C1125      H1128   1.082       .  S
C1126      C1127   1.389       .  A
C1126      C1210   1.470       .  S
C1127      H1129   1.082       .  S
Cu1130     N1133   2.051       .  S
Cu1131     N1141   2.082       .  S
Cu1132     N1134   2.077       .  S
Cu1132     N1140   2.081       .  S
N1133      N1134   1.318       .  A
N1133      C1137   1.335       .  A
N1134      C1135   1.354       .  A
C1135      C1136   1.390       .  A
C1135      H1138   1.082       .  S
C1136      C1137   1.379       .  A
C1136      C1183   1.470       .  S
C1137      H1139   1.082       .  S
N1140      N1141   1.328       .  A
N1140      C1144   1.343       .  A
N1141      C1142   1.345       .  A
C1142      C1143   1.380       .  A
C1142      H1145   1.082       .  S
C1143      C1144   1.379       .  A
C1143      C1167   1.466       .  S
C1144      H1146   1.082       .  S
N1147      N1148   1.319       .  A
N1147      C1151   1.353       .  A
N1147     Cu1155   2.077       .  S
N1148      C1149   1.337       .  A
N1148     Cu1154   2.056       .  S
C1149      C1150   1.380       .  A
C1149      H1152   1.082       .  S
C1150      C1151   1.389       .  A
C1150      C1239   1.470       .  S
C1151      H1153   1.082       .  S
Cu1154     N1157   2.056       .  S
Cu1155     N1165   2.081       .  S
Cu1156     N1158   2.075       .  S
Cu1156     N1164   2.079       .  S
N1157      N1158   1.319       .  A
N1157      C1161   1.335       .  A
N1158      C1159   1.354       .  A
C1159      C1160   1.389       .  A
C1159      H1162   1.082       .  S
C1160      C1161   1.380       .  A
C1160      C1198   1.471       .  S
C1161      H1163   1.082       .  S
N1164      N1165   1.327       .  A
N1164      C1168   1.343       .  A
N1165      C1166   1.345       .  A
C1166      C1167   1.380       .  A
C1166      H1169   1.082       .  S
C1167      C1168   1.379       .  A
C1168      H1170   1.082       .  S
O1171     Cu1179   1.969       .  S
O1171      C1181   1.273       .  A
O1172     Cu1179   1.969       .  S
O1172      C1182   1.273       .  A
O1173     Cu1179   1.969       .  S
O1173      C1183   1.273       .  A
O1174     Cu1179   1.971   1_655  S
O1174      C1184   1.274       .  A
O1175     Cu1180   2.048   1_655  S
O1175      C1184   1.281       .  A
O1176     Cu1180   2.047       .  S
O1176      C1183   1.281       .  A
O1177     Cu1180   2.052       .  S
O1177      C1182   1.282       .  A
O1178     Cu1180   2.052       .  S
O1178      C1181   1.282       .  A
Cu1179    Cu1180   2.372       .  S
C1184      C1268   1.472       .  S
O1185     Cu1193   1.978       .  S
O1185      C1195   1.274       .  A
O1186     Cu1193   1.978       .  S
O1186      C1196   1.274       .  A
O1187     Cu1193   1.962   1_556  S
O1187      C1197   1.272       .  A
O1188     Cu1193   1.962       .  S
O1188      C1198   1.272       .  A
O1189     Cu1194   2.053       .  S
O1189      C1198   1.282       .  A
O1190     Cu1194   2.053   1_556  S
O1190      C1197   1.282       .  A
O1191     Cu1194   2.046       .  S
O1191      C1196   1.281       .  A
O1192     Cu1194   2.046       .  S
O1192      C1195   1.281       .  A
Cu1193    Cu1194   2.372       .  S
O1199     Cu1207   1.972       .  S
O1199      C1209   1.274       .  A
O1200     Cu1207   1.972       .  S
O1200      C1210   1.274       .  A
O1201     Cu1207   1.972       .  S
O1201      C1211   1.274       .  A
O1202     Cu1207   1.972       .  S
O1202      C1212   1.274       .  A
O1203     Cu1208   2.044       .  S
O1203      C1212   1.281       .  A
O1204     Cu1208   2.044       .  S
O1204      C1211   1.281       .  A
O1205     Cu1208   2.044       .  S
O1205      C1210   1.281       .  A
O1206     Cu1208   2.044       .  S
O1206      C1209   1.281       .  A
Cu1207    Cu1208   2.374       .  S
O1213     Cu1221   2.047       .  S
O1213      C1223   1.282       .  A
O1214     Cu1221   2.047       .  S
O1214      C1224   1.281       .  A
O1215     Cu1221   2.045       .  S
O1215      C1225   1.281       .  A
O1216     Cu1221   2.046       .  S
O1216      C1226   1.281       .  A
O1217     Cu1222   1.971       .  S
O1217      C1226   1.274       .  A
O1218     Cu1222   1.973       .  S
O1218      C1225   1.274       .  A
O1219     Cu1222   1.972       .  S
O1219      C1224   1.274       .  A
O1220     Cu1222   1.972       .  S
O1220      C1223   1.274       .  A
Cu1221    Cu1222   2.373       .  S
C1226      C1416   1.471       .  S
O1227     Cu1235   1.972       .  S
O1227      C1237   1.274       .  A
O1228     Cu1235   1.972       .  S
O1228      C1238   1.274       .  A
O1229     Cu1235   1.972       .  S
O1229      C1239   1.273       .  A
O1230     Cu1235   1.970       .  S
O1230      C1240   1.274       .  A
O1231     Cu1236   2.046       .  S
O1231      C1240   1.281       .  A
O1232     Cu1236   2.045       .  S
O1232      C1239   1.281       .  A
O1233     Cu1236   2.047       .  S
O1233      C1238   1.281       .  A
O1234     Cu1236   2.047       .  S
O1234      C1237   1.281       .  A
Cu1235    Cu1236   2.373       .  S
C1240      C1244   1.471       .  S
N1241      N1242   1.318       .  A
N1241      C1245   1.354       .  A
N1241     Cu1249   2.083       .  S
N1242      C1243   1.334       .  A
N1242     Cu1248   2.045       .  S
C1243      C1244   1.378       .  A
C1243      H1246   1.082       .  S
C1244      C1245   1.391       .  A
C1245      H1247   1.082       .  S
Cu1248     N1251   2.045       .  S
Cu1249     N1259   2.087       .  S
Cu1250     N1252   2.082       .  S
Cu1250     N1258   2.087       .  S
N1251      N1252   1.318       .  A
N1251      C1255   1.336       .  A
N1252      C1253   1.353       .  A
C1253      C1254   1.391       .  A
C1253      H1256   1.082       .  S
C1254      C1255   1.378       .  A
C1254      C1302   1.470       .  S
C1255      H1257   1.082       .  S
N1258      N1259   1.328       .  A
N1258      C1262   1.345       .  A
N1259      C1260   1.344       .  A
C1260      C1261   1.380       .  A
C1260      H1263   1.082       .  S
C1261      C1262   1.380       .  A
C1261      C1285   1.469       .  S
C1262      H1264   1.082       .  S
N1265      N1266   1.319       .  A
N1265      C1269   1.354       .  A
N1265     Cu1273   2.082       .  S
N1266      C1267   1.336       .  A
N1266     Cu1272   2.054       .  S
C1267      C1268   1.379       .  A
C1267      H1270   1.082       .  S
C1268      C1269   1.390       .  A
C1269      H1271   1.082       .  S
Cu1272     N1275   2.054       .  S
Cu1273     N1283   2.086       .  S
Cu1274     N1276   2.081       .  S
Cu1274     N1282   2.085       .  S
N1275      N1276   1.319       .  A
N1275      C1279   1.336       .  A
N1276      C1277   1.354       .  A
C1277      C1278   1.390       .  A
C1277      H1280   1.082       .  S
C1278      C1279   1.380       .  A
C1278      C1488   1.472       .  S
C1279      H1281   1.082       .  S
N1282      N1283   1.328       .  A
N1282      C1286   1.344       .  A
N1283      C1284   1.345       .  A
C1284      C1285   1.381       .  A
C1284      H1287   1.082       .  S
C1285      C1286   1.380       .  A
C1286      H1288   1.082       .  S
O1289     Cu1297   1.963       .  S
O1289      C1299   1.272       .  A
O1290     Cu1297   1.963       .  S
O1290      C1300   1.272       .  A
O1291     Cu1297   1.979   1_556  S
O1291      C1301   1.275       .  A
O1292     Cu1297   1.979       .  S
O1292      C1302   1.275       .  A
O1293     Cu1298   2.038       .  S
O1293      C1302   1.280       .  A
O1294     Cu1298   2.039   1_556  S
O1294      C1301   1.280       .  A
O1295     Cu1298   2.055       .  S
O1295      C1300   1.283       .  A
O1296     Cu1298   2.056       .  S
O1296      C1299   1.283       .  A
Cu1297    Cu1298   2.373       .  S
C1299      C1330   1.472       .  S
N1303      N1304   1.319       .  A
N1303      C1307   1.353       .  A
N1303     Cu1311   2.075       .  S
N1304      C1305   1.335       .  A
N1304     Cu1310   2.053       .  S
C1305      C1306   1.379       .  A
C1305      H1308   1.082       .  S
C1306      C1307   1.389       .  A
C1306      C1410   1.470       .  S
C1307      H1309   1.082       .  S
Cu1310     N1313   2.053       .  S
Cu1311     N1321   2.080       .  S
Cu1312     N1314   2.076       .  S
Cu1312     N1320   2.080       .  S
N1313      N1314   1.319       .  A
N1313      C1317   1.336       .  A
N1314      C1315   1.353       .  A
C1315      C1316   1.389       .  A
C1315      H1318   1.082       .  S
C1316      C1317   1.380       .  A
C1317      H1319   1.082       .  S
N1320      N1321   1.328       .  A
N1320      C1324   1.344       .  A
N1321      C1322   1.343       .  A
C1322      C1323   1.379       .  A
C1322      H1325   1.082       .  S
C1323      C1324   1.379       .  A
C1323      C1347   1.465       .  S
C1324      H1326   1.082       .  S
N1327      N1328   1.319       .  A
N1327      C1331   1.354       .  A
N1327     Cu1335   2.074       .  S
N1328      C1329   1.336       .  A
N1328     Cu1334   2.061       .  S
C1329      C1330   1.381       .  A
C1329      H1332   1.082       .  S
C1330      C1331   1.389       .  A
C1331      H1333   1.082       .  S
Cu1334     N1337   2.061       .  S
Cu1335     N1345   2.079       .  S
Cu1336     N1338   2.075       .  S
Cu1336     N1344   2.079       .  S
N1337      N1338   1.319       .  A
N1337      C1341   1.337       .  A
N1338      C1339   1.353       .  A
C1339      C1340   1.389       .  A
C1339      H1342   1.082       .  S
C1340      C1341   1.381       .  A
C1341      H1343   1.082       .  S
N1344      N1345   1.327       .  A
N1344      C1348   1.343       .  A
N1345      C1346   1.343       .  A
C1346      C1347   1.379       .  A
C1346      H1349   1.082       .  S
C1347      C1348   1.379       .  A
C1348      H1350   1.082       .  S
N1351      N1352   1.319       .  A
N1351      C1355   1.353       .  A
N1351     Cu1359   2.075       .  S
N1352      C1353   1.335       .  A
N1352     Cu1358   2.053       .  S
C1353      C1354   1.379       .  A
C1353      H1356   1.082       .  S
C1354      C1355   1.389       .  A
C1354      C1411   1.470       .  S
C1355      H1357   1.082       .  S
Cu1358     N1361   2.053       .  S
Cu1359     N1369   2.079       .  S
Cu1360     N1362   2.076       .  S
Cu1360     N1368   2.080       .  S
N1361      N1362   1.319       .  A
N1361      C1365   1.336       .  A
N1362      C1363   1.353       .  A
C1363      C1364   1.389       .  A
C1363      H1366   1.082       .  S
C1364      C1365   1.380       .  A
C1365      H1367   1.082       .  S
N1368      N1369   1.328       .  A
N1368      C1372   1.344       .  A
N1369      C1370   1.343       .  A
C1370      C1371   1.379       .  A
C1370      H1373   1.082       .  S
C1371      C1372   1.379       .  A
C1371      C1395   1.465       .  S
C1372      H1374   1.082       .  S
N1375      N1376   1.319       .  A
N1375      C1379   1.354       .  A
N1375     Cu1383   2.074       .  S
N1376      C1377   1.336       .  A
N1376     Cu1382   2.061       .  S
C1377      C1378   1.381       .  A
C1377      H1380   1.082       .  S
C1378      C1379   1.389       .  A
C1378      C1471   1.472       .  S
C1379      H1381   1.082       .  S
Cu1382     N1385   2.061       .  S
Cu1383     N1393   2.078       .  S
Cu1384     N1386   2.075       .  S
Cu1384     N1392   2.079       .  S
N1385      N1386   1.319       .  A
N1385      C1389   1.337       .  A
N1386      C1387   1.353       .  A
C1387      C1388   1.389       .  A
C1387      H1390   1.082       .  S
C1388      C1389   1.381       .  A
C1389      H1391   1.082       .  S
N1392      N1393   1.327       .  A
N1392      C1396   1.343       .  A
N1393      C1394   1.343       .  A
C1394      C1395   1.379       .  A
C1394      H1397   1.082       .  S
C1395      C1396   1.379       .  A
C1396      H1398   1.082       .  S
O1399     Cu1407   1.967       .  S
O1399      C1409   1.273       .  A
O1400     Cu1407   1.967   1_545  S
O1400      C1410   1.273       .  A
O1401     Cu1407   1.967       .  S
O1401      C1411   1.273       .  A
O1402     Cu1407   1.967   1_556  S
O1402      C1412   1.273       .  A
O1403     Cu1408   2.048   1_556  S
O1403      C1412   1.282       .  A
O1404     Cu1408   2.047       .  S
O1404      C1411   1.282       .  A
O1405     Cu1408   2.048   1_545  S
O1405      C1410   1.282       .  A
O1406     Cu1408   2.048       .  S
O1406      C1409   1.282       .  A
Cu1407    Cu1408   2.373       .  S
N1413      N1414   1.318       .  A
N1413      C1417   1.354       .  A
N1413     Cu1421   2.083       .  S
N1414      C1415   1.334       .  A
N1414     Cu1420   2.044       .  S
C1415      C1416   1.378       .  A
C1415      H1418   1.082       .  S
C1416      C1417   1.391       .  A
C1417      H1419   1.082       .  S
Cu1420     N1423   2.044       .  S
Cu1421     N1431   2.088       .  S
Cu1422     N1424   2.083       .  S
Cu1422     N1430   2.088       .  S
N1423      N1424   1.318       .  A
N1423      C1427   1.335       .  A
N1424      C1425   1.353       .  A
C1425      C1426   1.391       .  A
C1425      H1428   1.082       .  S
C1426      C1427   1.378       .  A
C1426      C1474   1.470       .  S
C1427      H1429   1.082       .  S
N1430      N1431   1.328       .  A
N1430      C1434   1.345       .  A
N1431      C1432   1.345       .  A
C1432      C1433   1.380       .  A
C1432      H1435   1.082       .  S
C1433      C1434   1.381       .  A
C1433      C1457   1.469       .  S
C1434      H1436   1.082       .  S
N1437      N1438   1.319       .  A
N1437      C1441   1.354       .  A
N1437     Cu1445   2.082       .  S
N1438      C1439   1.336       .  A
N1438     Cu1444   2.055       .  S
C1439      C1440   1.380       .  A
C1439      H1442   1.082       .  S
C1440      C1441   1.390       .  A
C1441      H1443   1.082       .  S
Cu1444     N1447   2.055       .  S
Cu1445     N1455   2.087       .  S
Cu1446     N1448   2.082       .  S
Cu1446     N1454   2.086       .  S
N1447      N1448   1.319       .  A
N1447      C1451   1.336       .  A
N1448      C1449   1.354       .  A
C1449      C1450   1.391       .  A
C1449      H1452   1.082       .  S
C1450      C1451   1.380       .  A
C1450      C1486   1.473       .  S
C1451      H1453   1.082       .  S
N1454      N1455   1.328       .  A
N1454      C1458   1.345       .  A
N1455      C1456   1.345       .  A
C1456      C1457   1.381       .  A
C1456      H1459   1.082       .  S
C1457      C1458   1.380       .  A
C1458      H1460   1.082       .  S
O1461     Cu1469   2.055       .  S
O1461      C1471   1.283       .  A
O1462     Cu1469   2.056       .  S
O1462      C1472   1.283       .  A
O1463     Cu1469   2.039       .  S
O1463      C1473   1.280       .  A
O1464     Cu1469   2.038   1_545  S
O1464      C1474   1.280       .  A
O1465     Cu1470   1.979   1_545  S
O1465      C1474   1.275       .  A
O1466     Cu1470   1.979       .  S
O1466      C1473   1.275       .  A
O1467     Cu1470   1.963       .  S
O1467      C1472   1.272       .  A
O1468     Cu1470   1.963       .  S
O1468      C1471   1.272       .  A
Cu1469    Cu1470   2.373       .  S
O1475     Cu1483   2.051       .  S
O1475      C1485   1.282       .  A
O1476     Cu1483   2.051       .  S
O1476      C1486   1.282       .  A
O1477     Cu1483   2.052       .  S
O1477      C1487   1.282       .  A
O1478     Cu1483   2.050       .  S
O1478      C1488   1.282       .  A
O1479     Cu1484   1.972       .  S
O1479      C1488   1.274       .  A
O1480     Cu1484   1.973       .  S
O1480      C1487   1.274       .  A
O1481     Cu1484   1.973       .  S
O1481      C1486   1.274       .  A
O1482     Cu1484   1.973       .  S
O1482      C1485   1.274       .  A
Cu1483    Cu1484   2.372       .  S
