geometry optimzed in LAMMPS
_audit_creation_date              2020-12-01 
_audit_creation_method            'lammps2cif' 
_symmetry_space_group_name_H-M    'P1' 
_symmetry_Int_Tables_number       1 
_symmetry_cell_setting            triclinic 
loop_ 
_symmetry_equiv_pos_as_xyz 
  x,y,z 
_cell_length_a                    40.95914908 
_cell_length_b                    43.03165936152217 
_cell_length_c                    38.216827025492094 
_cell_angle_alpha                 88.59907319150922 
_cell_angle_beta                  93.94429935146061 
_cell_angle_gamma                 90.05000958378595 
loop_ 
_atom_site_label 
_atom_site_type_symbol 
_atom_site_fract_x 
_atom_site_fract_y 
_atom_site_fract_z 
_atom_site_charge 
C1          C  0.28211985  0.25360278  0.87605751     0.81000
N2          N  0.27796844  0.25370110  0.84037969    -0.77300
C3          C  0.25633925  0.27350101  0.82301920     0.83400
N4          N  0.23870797  0.29307302  0.84152789    -0.77300
C5          C  0.24264947  0.29330413  0.87709453     0.83500
N6          N  0.26450015  0.27361610  0.89433033    -0.79000
O7          O  0.43792574  0.05332831  0.95966881    -0.77700
C8          C  0.98133122  0.98498074  0.04206186     0.83300
O9          O  0.04964036  0.03986522  0.93591949    -0.78800
O10         O  0.02860017  0.42902291  0.96218642    -0.80300
O11         O  0.41669152  0.44972340  0.91907968    -0.80100
O12         O  0.41546681  0.02799566  0.91383875    -0.78700
Zn13       Zn  0.97765091  0.02707881  0.97625925     1.55700
O14         O  0.44716385  0.42320658  0.95996793    -0.80100
Cd15       Cd  0.44474537  0.98939498  0.91092856     1.59700
Cd16       Cd  0.02470575  0.99956012  0.91946513     1.59600
O17         O  0.45996008  0.98918582  0.86065122    -0.80100
O18         O  0.98360353  0.99272037  0.94501621    -1.90600
Cd19       Cd  0.98650005  0.45247115  0.97203942     1.59900
O20         O  0.01319984  0.00116051  0.86525331    -0.80100
O21         O  0.98682691  0.46076205  0.02488822    -0.78700
C22         C  0.04224937  0.05901337  0.95914048     0.83800
C23         C  0.41637460  0.05107579  0.93409414     0.81900
O24         O  0.97580985  0.01144796  0.02691966    -0.77700
C25         C  0.42162084  0.42579974  0.93907330     0.84300
O26         O  0.01627822  0.05595447  0.97538900    -0.77800
C27         C  0.98679592  0.99510427  0.84686307     0.84400
C28         C  0.05353875  0.43597298  0.94547499     0.84700
O29         O  0.05625014  0.46202661  0.92922901    -0.80200
C30         C  0.26917545  0.25876240  0.03404115     0.81000
N31         N  0.26407113  0.26022344  0.06874116    -0.77300
C32         C  0.23989439  0.24341219  0.08265053     0.83400
N33         N  0.22104994  0.22475378  0.06165013    -0.77300
C34         C  0.22577904  0.22271894  0.02690202     0.83500
N35         N  0.24999175  0.23988675  0.01300223    -0.79000
C36         C  0.49158619  0.02600904  0.37371451     0.81000
N37         N  0.48340966  0.02884109  0.33863947    -0.77300
C38         C  0.99838376  0.01134396  0.31553056     0.83400
N39         N  0.02162426  0.49067043  0.32770355    -0.77300
C40         C  0.03024384  0.48746780  0.36250320     0.83500
N41         N  0.01527879  0.00533823  0.38574818    -0.79000
O42         O  0.29164890  0.18057325  0.47027090    -0.77700
C43         C  0.25923650  0.24289222  0.55137453     0.83300
O44         O  0.18809094  0.22434339  0.42460947    -0.78800
O45         O  0.22594966  0.31839856  0.47623956    -0.80300
O46         O  0.33509051  0.28314132  0.44642389    -0.80100
O47         O  0.32585075  0.20670343  0.43760517    -0.78700
Zn48       Zn  0.25614623  0.21170576  0.47985222     1.55700
O49         O  0.30686853  0.30986517  0.48359511    -0.80100
Cd50       Cd  0.30247916  0.24920078  0.42910643     1.59700
Cd51       Cd  0.22286179  0.25870487  0.41928625     1.59600
O52         O  0.29212590  0.25530174  0.37538408    -0.80100
O53         O  0.26109467  0.25090869  0.45405274    -1.90600
Cd54       Cd  0.26332148  0.28636210  0.48696085     1.59900
O55         O  0.23767143  0.25931166  0.36836181    -0.80100
O56         O  0.26113177  0.27023832  0.53807376    -0.78700
C57         C  0.18816129  0.19995177  0.44416315     0.83800
C58         C  0.31768408  0.18198269  0.45384187     0.83500
O59         O  0.25759446  0.21890709  0.53236672    -0.77700
C60         C  0.33253298  0.30547925  0.46729917     0.84300
O61         O  0.21246285  0.19261543  0.46541970    -0.77800
C62         C  0.26573894  0.25827514  0.35581782     0.84400
C63         C  0.20347785  0.32090946  0.45160924     0.84700
O64         O  0.19977663  0.30071560  0.42773633    -0.80200
C65         C  0.48704632  0.49129139  0.52708141     0.81000
N66         N  0.49165736  0.49297989  0.56252872    -0.77300
C67         C  0.01144074  0.51510410  0.57731940     0.83400
N68         N  0.02671903  0.03553184  0.55632974    -0.77300
C69         C  0.02243650  0.03379685  0.52080318     0.83500
N70         N  0.00259340  0.01164702  0.50629335    -0.79000
C71         C  0.12901363  0.13403879  0.46372783     0.19500
C72         C  0.12878338  0.10156017  0.46171470    -0.18600
C73         C  0.10287134  0.08430895  0.47410331    -0.10900
C74         C  0.07719791  0.09933057  0.48954701     0.21700
C75         C  0.07698124  0.13183651  0.49069045    -0.20200
C76         C  0.10246240  0.14912815  0.47749688    -0.11100
C77         C  0.05314218  0.08141324  0.50884047    -0.15200
C78         C  0.04132261  0.05395641  0.49803396    -0.29100
C79         C  0.15904920  0.15133861  0.45630665    -0.03400
C80         C  0.15843031  0.18068009  0.44354119    -0.39900
H81         H  0.14923746  0.08948580  0.45167369     0.12900
H82         H  0.10401328  0.05918600  0.47364717     0.12500
H83         H  0.05762906  0.14378059  0.50291180     0.11900
H84         H  0.10239325  0.17410991  0.48021078     0.12200
H85         H  0.04573337  0.09071581  0.53328386     0.14900
H86         H  0.04641932  0.04564794  0.47233740     0.13700
H87         H  0.18241991  0.14004632  0.46322034     0.11400
H88         H  0.13534906  0.19135481  0.43412018     0.13400
C89         C  0.43204891  0.41994089  0.51397891     0.19500
C90         C  0.43596330  0.38817207  0.52216503    -0.18600
C91         C  0.41193527  0.36692416  0.51083393    -0.10900
C92         C  0.38324790  0.37734494  0.49188318     0.21700
C93         C  0.37929884  0.40910622  0.48378411    -0.20200
C94         C  0.40366120  0.43024678  0.49437019    -0.11100
C95         C  0.35588673  0.35597002  0.48318359    -0.15200
C96         C  0.36039741  0.32669754  0.47320886    -0.29100
C97         C  0.45651034  0.44219816  0.52855067    -0.03400
C98         C  0.46458560  0.46818384  0.51103941    -0.39900
H99         H  0.45748012  0.37986990  0.53766291     0.12900
H100        H  0.41516399  0.34259679  0.51815339     0.12500
H101        H  0.35712807  0.41758483  0.46962606     0.11900
H102        H  0.39965795  0.45474302  0.48847569     0.12200
H103        H  0.33115336  0.36484845  0.48443619     0.14900
H104        H  0.38479139  0.31837724  0.46883701     0.13700
H105        H  0.46854729  0.43677654  0.55420604     0.11400
H106        H  0.45477528  0.47247551  0.48422577     0.13400
C107        C  0.13311288  0.37892051  0.42411168     0.19500
C108        C  0.10581260  0.37706330  0.40000731    -0.18600
C109        C  0.08379784  0.40172975  0.39498828    -0.10900
C110        C  0.08861348  0.42929007  0.41369121     0.21700
C111        C  0.11516452  0.43093851  0.43884217    -0.20200
C112        C  0.13741912  0.40610688  0.44388059    -0.11100
C113        C  0.06634311  0.45641641  0.40634092    -0.15200
C114        C  0.05431357  0.46294528  0.37334234    -0.29100
C115        C  0.15645394  0.35219428  0.42647618    -0.03400
C116        C  0.18130364  0.34817883  0.45112993    -0.39900
H117        H  0.10155066  0.35641870  0.38467597     0.12900
H118        H  0.06296038  0.39918343  0.37626386     0.12500
H119        H  0.11926448  0.45182046  0.45378168     0.11900
H120        H  0.15814598  0.40876111  0.46262139     0.12200
H121        H  0.06055668  0.47128008  0.42763376     0.14900
H122        H  0.06240575  0.44903031  0.35222144     0.13700
H123        H  0.15264093  0.33452849  0.40674959     0.11400
H124        H  0.18555098  0.36480785  0.47179418     0.13400
C125        C  0.38819728  0.12679116  0.43530499     0.19500
C126        C  0.42249989  0.12655772  0.44080410    -0.18600
C127        C  0.44103250  0.10237918  0.42810869    -0.10900
C128        C  0.42548449  0.07840758  0.40895189     0.21700
C129        C  0.39119143  0.07825945  0.40437098    -0.20200
C130        C  0.37270759  0.10197674  0.41763120    -0.11100
C131        C  0.44392705  0.05597262  0.38896099    -0.15200
C132        C  0.47438460  0.04544308  0.39816583    -0.29100
C133        C  0.36938866  0.15483290  0.44384663    -0.03400
C134        C  0.33799646  0.15370018  0.45229050    -0.39900
H135        H  0.43501403  0.14563448  0.45395182     0.12900
H136        H  0.46746753  0.10351048  0.43142230     0.12500
H137        H  0.37868061  0.06028693  0.38928030     0.11900
H138        H  0.34643393  0.10179847  0.41208174     0.12200
H139        H  0.43151382  0.04779953  0.36484401     0.14900
H140        H  0.48653968  0.05102638  0.42337874     0.13700
H141        H  0.38143900  0.17724933  0.44177656     0.11400
H142        H  0.32649217  0.13139683  0.45709673     0.13400
C143        C  0.24445701  0.26148858  0.25559508     0.19500
C144        C  0.21929775  0.24848000  0.23387020    -0.18600
C145        C  0.22102059  0.24863509  0.19740383    -0.10900
C146        C  0.24806923  0.26201601  0.18177708     0.21700
C147        C  0.27259503  0.27603966  0.20352381    -0.20200
C148        C  0.27088940  0.27580611  0.23995841    -0.11100
C149        C  0.25186627  0.26207355  0.14320098    -0.15200
C150        C  0.23422518  0.24418782  0.12045347    -0.29100
C151        C  0.24201970  0.26024974  0.29427987    -0.03400
C152        C  0.26834338  0.26054969  0.31743881    -0.39900
H153        H  0.19836644  0.23780466  0.24520177     0.12900
H154        H  0.20094911  0.23844203  0.18186203     0.12500
H155        H  0.29340791  0.28702080  0.19229400     0.11900
H156        H  0.29015003  0.28714677  0.25567282     0.12200
H157        H  0.27104122  0.27664686  0.13331765     0.14900
H158        H  0.21553149  0.22873170  0.12951462     0.13700
H159        H  0.21782469  0.25742985  0.30394877     0.11400
H160        H  0.29278650  0.26139401  0.30816390     0.13400
C161        C  0.32709840  0.30493946  0.97627836     0.19500
C162        C  0.32135920  0.32682369  0.94869461    -0.18600
C163        C  0.34525408  0.34900387  0.94123005    -0.10900
C164        C  0.37560834  0.34941725  0.96106810     0.21700
C165        C  0.38196481  0.32607283  0.98697877    -0.20200
C166        C  0.35808327  0.30416859  0.99455185    -0.11100
C167        C  0.40104345  0.37395278  0.95698243    -0.15200
C168        C  0.39649525  0.40086170  0.93837995    -0.29100
C169        C  0.30019544  0.28409111  0.98681160    -0.03400
C170        C  0.29647676  0.27716015  0.02084796    -0.39900
H171        H  0.29788200  0.32755405  0.93381700     0.12900
H172        H  0.33950301  0.36586946  0.92032089     0.12500
H173        H  0.40524653  0.32530114  0.00225228     0.11900
H174        H  0.36375354  0.28689548  0.01514523     0.12200
H175        H  0.42435206  0.37038325  0.97190909     0.14900
H176        H  0.37359516  0.40554892  0.92328968     0.13700
H177        H  0.28180729  0.27665867  0.96694169     0.11400
H178        H  0.31340664  0.28705212  0.04070014     0.13400
C179        C  0.15894783  0.16140681  0.00146330     0.19500
C180        C  0.13318542  0.14974142  0.02029515    -0.18600
C181        C  0.11227452  0.12685883  0.00655959    -0.10900
C182        C  0.11613325  0.11502009  0.97310064     0.21700
C183        C  0.14215450  0.12634388  0.95420251    -0.20200
C184        C  0.16333787  0.14943544  0.96812007    -0.11100
C185        C  0.09425235  0.08990981  0.95851879    -0.15200
C186        C  0.06372177  0.08554888  0.96889295    -0.29100
C187        C  0.18091182  0.18475844  0.01916071    -0.03400
C188        C  0.20516973  0.20108059  0.00498740    -0.39900
H189        H  0.12939979  0.15806814  0.04624461     0.12900
H190        H  0.09369187  0.11798636  0.02290247     0.12500
H191        H  0.14609305  0.11729500  0.92863197     0.11900
H192        H  0.18321158  0.15736617  0.95297739     0.12200
H193        H  0.10357480  0.07455379  0.93937608     0.14900
H194        H  0.05380543  0.10176711  0.98668979     0.13700
H195        H  0.17650284  0.18870399  0.04641040     0.11400
H196        H  0.21018243  0.19854593  0.97771421     0.13400
C197        C  0.01120688  0.49811126  0.75094265     0.19500
C198        C  0.03275923  0.51614769  0.73192530    -0.18600
C199        C  0.03116106  0.51566634  0.69519390    -0.10900
C200        C  0.50798007  0.99687136  0.67675621     0.21700
C201        C  0.48740256  0.97791677  0.69595325    -0.20200
C202        C  0.48896632  0.97845098  0.73253468    -0.11100
C203        C  0.50446095  0.99571943  0.63777529    -0.15200
C204        C  0.01675831  0.01703744  0.61588779    -0.29100
C205        C  0.01268298  0.49983173  0.78986927    -0.03400
C206        C  0.98632503  0.99436326  0.80824612    -0.39900
H207        H  0.05056904  0.53099302  0.74551118     0.12900
H208        H  0.04828404  0.52985683  0.68162014     0.12500
H209        H  0.46978404  0.96274360  0.68256369     0.11900
H210        H  0.47290550  0.96315093  0.74624370     0.12200
H211        H  0.48999387  0.97675905  0.62657286     0.14900
H212        H  0.03070061  0.53665243  0.62605494     0.13700
H213        H  0.03558385  0.50674928  0.80353091     0.11400
H214        H  0.46293476  0.98921131  0.79452048     0.13400
C215        C  0.48485176  0.00241141  0.14109969     0.19500
C216        C  0.47411334  0.02650411  0.16162401    -0.18600
C217        C  0.47895075  0.02494064  0.19827100    -0.10900
C218        C  0.99481619  0.49912234  0.21521596     0.21700
C219        C  0.00560702  0.47511800  0.19464583    -0.20200
C220        C  0.00083364  0.47670117  0.15812331    -0.11100
C221        C  0.00227966  0.49667150  0.25386531    -0.15200
C222        C  0.98918395  0.01483213  0.27750961    -0.29100
C223        C  0.48072026  0.00570252  0.10213277    -0.03400
C224        C  0.98225746  0.98151692  0.08063538    -0.39900
H225        H  0.46218536  0.04677943  0.14922276     0.12900
H226        H  0.47090255  0.04435755  0.21288022     0.12500
H227        H  0.01827974  0.45515203  0.20687668     0.11900
H228        H  0.01067247  0.45809105  0.14353900     0.12200
H229        H  0.01940134  0.47857823  0.26333074     0.14900
H230        H  0.47114656  0.03238827  0.26929334     0.13700
H231        H  0.47649934  0.02887648  0.09079301     0.11400
H232        H  0.98518467  0.45806011  0.09138454     0.13400
C233        C  0.26046623  0.25996768  0.65042537     0.19500
C234        C  0.25116537  0.28565844  0.66937204    -0.18600
C235        C  0.25305748  0.28460056  0.70603861    -0.10900
C236        C  0.26438505  0.25766484  0.72472139     0.21700
C237        C  0.27401644  0.23208132  0.70578362    -0.20200
C238        C  0.27205587  0.23312067  0.66906436    -0.11100
C239        C  0.26806095  0.25593865  0.76376010    -0.15200
C240        C  0.25163812  0.27446752  0.78434018    -0.29100
C241        C  0.25944943  0.26290358  0.61149324    -0.03400
C242        C  0.25921657  0.23859490  0.58989569    -0.39900
H243        H  0.24266335  0.30680878  0.65572817     0.12900
H244        H  0.24647824  0.30527905  0.71943916     0.12500
H245        H  0.28332356  0.21124311  0.71947688     0.11900
H246        H  0.28047938  0.21316141  0.65559126     0.12200
H247        H  0.28458093  0.23845581  0.77594832     0.14900
H248        H  0.23384269  0.29102099  0.77275849     0.13700
H249        H  0.25834896  0.28630547  0.60010425     0.11400
H250        H  0.25872173  0.21496819  0.60037029     0.13400
C251        C  0.34029743  0.18362112  0.89495941     0.19500
C252        C  0.34815320  0.15889754  0.87383327    -0.18600
C253        C  0.36560556  0.13326006  0.88803621    -0.10900
C254        C  0.37575329  0.13162123  0.92394664     0.21700
C255        C  0.36885590  0.15674635  0.94503289    -0.20200
C256        C  0.35109952  0.18248926  0.93078915    -0.11100
C257        C  0.39542151  0.10485581  0.93903895    -0.15200
C258        C  0.39251922  0.07626135  0.92563993    -0.29100
C259        C  0.32098296  0.20979080  0.87798402    -0.03400
C260        C  0.30420691  0.23079401  0.89516917    -0.39900
H261        H  0.34062644  0.15932366  0.84608217     0.12900
H262        H  0.37172264  0.11509495  0.87052843     0.12500
H263        H  0.37710069  0.15637497  0.97258241     0.11900
H264        H  0.34636324  0.20143552  0.94780571     0.12200
H265        H  0.41352945  0.10909995  0.96051448     0.14900
H266        H  0.37357812  0.07177852  0.90509813     0.13700
H267        H  0.31882999  0.21051744  0.84946598     0.11400
H268        H  0.30500734  0.23034169  0.92359641     0.13400
C269        C  0.13052755  0.39238307  0.92291769     0.19500
C270        C  0.16459446  0.39605854  0.92762232    -0.18600
C271        C  0.18559991  0.37313026  0.91654779    -0.10900
C272        C  0.17265481  0.34669605  0.89972782     0.21700
C273        C  0.13867199  0.34302754  0.89524140    -0.20200
C274        C  0.11778475  0.36544330  0.90701736    -0.11100
C275        C  0.19358639  0.32447135  0.88279090    -0.15200
C276        C  0.22288810  0.31462915  0.89667698    -0.29100
C277        C  0.10838366  0.41785937  0.93149458    -0.03400
C278        C  0.07890622  0.41199015  0.94353991    -0.39900
H279        H  0.17488634  0.41686343  0.93935330     0.12900
H280        H  0.21179674  0.37677782  0.91954075     0.12500
H281        H  0.12825695  0.32304370  0.88185515     0.11900
H282        H  0.09164623  0.36235768  0.90210782     0.12200
H283        H  0.18379608  0.31504300  0.85809303     0.14900
H284        H  0.23187104  0.32156638  0.92273293     0.13700
H285        H  0.11596003  0.44168948  0.92659213     0.11400
H286        H  0.07245566  0.38830059  0.95077520     0.13400
C287        C  0.28211687  0.75360174  0.87605660     0.81000
N288        N  0.27796454  0.75370069  0.84037882    -0.77300
C289        C  0.25633460  0.77350056  0.82301944     0.83400
N290        N  0.23870350  0.79307188  0.84152919    -0.77300
C291        C  0.24264599  0.79330238  0.87709584     0.83500
N292        N  0.26449742  0.77361442  0.89433048    -0.79000
O293        O  0.43792317  0.55332754  0.95966571    -0.77700
C294        C  0.98133650  0.48497973  0.04206229     0.83300
O295        O  0.04964166  0.53986657  0.93591876    -0.78800
O296        O  0.02859773  0.92902207  0.96219008    -0.80300
O297        O  0.41669274  0.94972476  0.91908158    -0.80100
O298        O  0.41546560  0.52799433  0.91383538    -0.78700
Zn299      Zn  0.97765362  0.52707896  0.97626062     1.55700
O300        O  0.44716621  0.92320728  0.95996830    -0.80100
Cd301      Cd  0.44474448  0.48939351  0.91092700     1.59700
Cd302      Cd  0.02470662  0.49956197  0.91946361     1.59600
O303        O  0.45996096  0.48918350  0.86065039    -0.80100
O304        O  0.98360550  0.49272130  0.94501633    -1.90600
Cd305      Cd  0.98649713  0.95247067  0.97204025     1.59900
O306        O  0.01319872  0.50116373  0.86525210    -0.80100
O307        O  0.98682165  0.96076256  0.02488864    -0.78700
C308        C  0.04225164  0.55901377  0.95914112     0.83800
C309        C  0.41637272  0.55107470  0.93409042     0.81900
O310        O  0.97581401  0.51144709  0.02692084    -0.77700
C311        C  0.42162257  0.92580082  0.93907466     0.84300
O312        O  0.01628105  0.55595433  0.97539052    -0.77800
C313        C  0.98679429  0.49510739  0.84686279     0.84400
C314        C  0.05353694  0.93597164  0.94547948     0.84700
O315        O  0.05624893  0.96202489  0.92923289    -0.80200
C316        C  0.26917239  0.75876778  0.03404185     0.81000
N317        N  0.26406636  0.76023014  0.06874137    -0.77300
C318        C  0.23988929  0.74341901  0.08265026     0.83400
N319        N  0.22104625  0.72475940  0.06164992    -0.77300
C320        C  0.22577706  0.72272322  0.02690232     0.83500
N321        N  0.24999009  0.73989092  0.01300299    -0.79000
C322        C  0.49157435  0.52601737  0.37371228     0.81000
N323        N  0.48339850  0.52884876  0.33863703    -0.77300
C324        C  0.99839477  0.51133712  0.31553212     0.83400
N325        N  0.02161285  0.99067729  0.32770302    -0.77300
C326        C  0.03023182  0.98747539  0.36250288     0.83500
N327        N  0.01529105  0.50532994  0.38574937    -0.79000
O328        O  0.29163679  0.68058197  0.47026709    -0.77700
C329        C  0.25922600  0.74289910  0.55137320     0.83300
O330        O  0.18807890  0.72435280  0.42460794    -0.78800
O331        O  0.22593665  0.81840639  0.47624046    -0.80300
O332        O  0.33507812  0.78315150  0.44642309    -0.80100
O333        O  0.32583895  0.70671340  0.43760284    -0.78700
Zn334      Zn  0.25613440  0.71171418  0.47985000     1.55700
O335        O  0.30685571  0.80987446  0.48359470    -0.80100
Cd336      Cd  0.30246713  0.74921076  0.42910515     1.59700
Cd337      Cd  0.22284977  0.75871421  0.41928501     1.59600
O338        O  0.29211386  0.75531246  0.37538293    -0.80100
O339        O  0.26108261  0.75091769  0.45405147    -1.90600
Cd340      Cd  0.26330922  0.78637045  0.48696053     1.59900
O341        O  0.23765934  0.75932168  0.36836050    -0.80100
O342        O  0.26112069  0.77024551  0.53807315    -0.78700
C343        C  0.18814906  0.69996106  0.44416139     0.83800
C344        C  0.31767213  0.68199209  0.45383836     0.83500
O345        O  0.25758377  0.71891439  0.53236471    -0.77700
C346        C  0.33252021  0.80548917  0.46729865     0.84300
O347        O  0.21245063  0.69262430  0.46541775    -0.77800
C348        C  0.26572693  0.75828574  0.35581662     0.84400
C349        C  0.20346511  0.82091776  0.45160987     0.84700
O350        O  0.19976446  0.80072465  0.42773610    -0.80200
C351        C  0.48703032  0.99130419  0.52707954     0.81000
N352        N  0.49164260  0.99299214  0.56252679    -0.77300
C353        C  0.01145487  0.01509221  0.57732160     0.83400
N354        N  0.02670418  0.53554407  0.55632729    -0.77300
C355        C  0.02242035  0.53380973  0.52080077     0.83500
N356        N  0.00257666  0.51166019  0.50629119    -0.79000
C357        C  0.12899983  0.63404936  0.46372603     0.19500
C358        C  0.12876850  0.60157076  0.46171257    -0.18600
C359        C  0.10285578  0.58432023  0.47410072    -0.10900
C360        C  0.07718275  0.59934250  0.48954442     0.21700
C361        C  0.07696720  0.63184844  0.49068829    -0.20200
C362        C  0.10244901  0.64913938  0.47749507    -0.11100
C363        C  0.05312653  0.58142575  0.50883781    -0.15200
C364        C  0.04130618  0.55396923  0.49803121    -0.29100
C365        C  0.15903593  0.65134843  0.45630505    -0.03400
C366        C  0.15841775  0.68068984  0.44353938    -0.39900
H367        H  0.14922230  0.58949583  0.45167154     0.12900
H368        H  0.10399686  0.55919725  0.47364430     0.12500
H369        H  0.05761542  0.64379296  0.50290969     0.11900
H370        H  0.10238068  0.67412120  0.48020922     0.12200
H371        H  0.04571829  0.59072830  0.53328148     0.14900
H372        H  0.04640240  0.54566083  0.47233456     0.13700
H373        H  0.18240632  0.64005571  0.46321901     0.11400
H374        H  0.13533677  0.69136490  0.43411817     0.13400
C375        C  0.43203374  0.91995291  0.51397797     0.19500
C376        C  0.43594906  0.88818413  0.52216380    -0.18600
C377        C  0.41192147  0.86693568  0.51083298    -0.10900
C378        C  0.38323350  0.87735588  0.49188294     0.21700
C379        C  0.37928335  0.90911715  0.48378441    -0.20200
C380        C  0.40364532  0.93025825  0.49437011    -0.11100
C381        C  0.35587285  0.85598027  0.48318362    -0.15200
C382        C  0.36038420  0.82670799  0.47320849    -0.29100
C383        C  0.45649503  0.94221059  0.52854919    -0.03400
C384        C  0.46456923  0.96819669  0.51103798    -0.39900
H385        H  0.45746637  0.87988236  0.53766122     0.12900
H386        H  0.41515102  0.84260835  0.51815209     0.12500
H387        H  0.35711207  0.91759533  0.46962697     0.11900
H388        H  0.39964127  0.95475444  0.48847595     0.12200
H389        H  0.33113929  0.86485804  0.48443662     0.14900
H390        H  0.38477832  0.81838831  0.46883626     0.13700
H391        H  0.46853292  0.93678882  0.55420400     0.11400
H392        H  0.45475800  0.97248859  0.48422477     0.13400
C393        C  0.13309994  0.87892873  0.42411326     0.19500
C394        C  0.10579870  0.87707093  0.40001028    -0.18600
C395        C  0.08378396  0.90173738  0.39499130    -0.10900
C396        C  0.08860063  0.92929834  0.41369287     0.21700
C397        C  0.11515261  0.93094738  0.43884257    -0.20200
C398        C  0.13740716  0.90611571  0.44388096    -0.11100
C399        C  0.06633052  0.95642477  0.40634190    -0.15200
C400        C  0.05430102  0.96295276  0.37334311    -0.29100
C401        C  0.15644116  0.85220268  0.42647724    -0.03400
C402        C  0.18129062  0.84818690  0.45113120    -0.39900
H403        H  0.10153603  0.85642578  0.38467983     0.12900
H404        H  0.06294587  0.89919072  0.37626790     0.12500
H405        H  0.11925340  0.95182991  0.45378101     0.11900
H406        H  0.15813491  0.90877040  0.46262055     0.12200
H407        H  0.06054448  0.97128924  0.42763421     0.14900
H408        H  0.06239298  0.94903695  0.35222283     0.13700
H409        H  0.15262837  0.83453730  0.40675022     0.11400
H410        H  0.18553746  0.86481540  0.47179597     0.13400
C411        C  0.38818533  0.62680116  0.43530005     0.19500
C412        C  0.42248786  0.62656724  0.44080015    -0.18600
C413        C  0.44102046  0.60238871  0.42810475    -0.10900
C414        C  0.42547260  0.57841761  0.40894700     0.21700
C415        C  0.39117960  0.57827005  0.40436494    -0.20200
C416        C  0.37269571  0.60198731  0.41762514    -0.11100
C417        C  0.44391542  0.55598241  0.38895666    -0.15200
C418        C  0.47437246  0.54545213  0.39816267    -0.29100
C419        C  0.36937676  0.65484270  0.44384240    -0.03400
C420        C  0.33798449  0.65370970  0.45228599    -0.39900
H421        H  0.43500192  0.64564353  0.45394879     0.12900
H422        H  0.46745553  0.60351957  0.43141928     0.12500
H423        H  0.37866888  0.56029789  0.38927353     0.11900
H424        H  0.34642216  0.60180942  0.41207500     0.12200
H425        H  0.43150274  0.54780960  0.36483923     0.14900
H426        H  0.48652687  0.55103520  0.42337601     0.13700
H427        H  0.38142721  0.67725916  0.44177334     0.11400
H428        H  0.32648015  0.63140624  0.45709125     0.13400
C429        C  0.24444579  0.76149919  0.25559382     0.19500
C430        C  0.21928786  0.74848886  0.23386862    -0.18600
C431        C  0.22101150  0.74864371  0.19740237    -0.10900
C432        C  0.24805960  0.76202613  0.18177605     0.21700
C433        C  0.27258390  0.77605165  0.20352306    -0.20200
C434        C  0.27087752  0.77581828  0.23995756    -0.11100
C435        C  0.25185782  0.76208295  0.14320017    -0.15200
C436        C  0.23421849  0.74419571  0.12045276    -0.29100
C437        C  0.24200803  0.76026014  0.29427852    -0.03400
C438        C  0.26833150  0.76056089  0.31743767    -0.39900
H439        H  0.19835711  0.73781219  0.24519985     0.12900
H440        H  0.20094113  0.73844914  0.18186035     0.12500
H441        H  0.29339632  0.78703402  0.19229357     0.11900
H442        H  0.29013709  0.78716023  0.25567225     0.12200
H443        H  0.27103233  0.77665690  0.13331704     0.14900
H444        H  0.21552523  0.72873903  0.12951369     0.13700
H445        H  0.21781298  0.75743911  0.30394718     0.11400
H446        H  0.29277470  0.76140621  0.30816290     0.13400
C447        C  0.32709860  0.80494199  0.97628016     0.19500
C448        C  0.32136105  0.82682458  0.94869446    -0.18600
C449        C  0.34525635  0.84900442  0.94123017    -0.10900
C450        C  0.37560942  0.84941902  0.96107037     0.21700
C451        C  0.38196437  0.82607613  0.98698313    -0.20200
C452        C  0.35808240  0.80417230  0.99455604    -0.11100
C453        C  0.40104489  0.87395412  0.95698439    -0.15200
C454        C  0.39649680  0.90086297  0.93838174    -0.29100
C455        C  0.30019503  0.78409411  0.98681285    -0.03400
C456        C  0.29647402  0.77716543  0.02084927    -0.39900
H457        H  0.29788473  0.82755392  0.93381498     0.12900
H458        H  0.33950665  0.86586878  0.92031928     0.12500
H459        H  0.40524529  0.82530537  0.00225842     0.11900
H460        H  0.36375143  0.78690042  0.01515105     0.12200
H461        H  0.42435341  0.87038451  0.97191108     0.14900
H462        H  0.37359656  0.90555035  0.92329190     0.13700
H463        H  0.28180849  0.77665994  0.96694214     0.11400
H464        H  0.31340233  0.78705905  0.04070181     0.13400
C465        C  0.15894944  0.66140740  0.00146419     0.19500
C466        C  0.13319035  0.64973784  0.02029822    -0.18600
C467        C  0.11227993  0.62685503  0.00656236    -0.10900
C468        C  0.11613564  0.61502030  0.97310098     0.21700
C469        C  0.14215387  0.62634791  0.95420074    -0.20200
C470        C  0.16333680  0.64943972  0.96811864    -0.11100
C471        C  0.09425438  0.58991068  0.95851826    -0.15200
C472        C  0.06372461  0.58554868  0.96889438    -0.29100
C473        C  0.18091228  0.68476017  0.01916128    -0.03400
C474        C  0.20516927  0.70108357  0.00498785    -0.39900
H475        H  0.12940686  0.65806163  0.04624949     0.12900
H476        H  0.09369973  0.61797935  0.02290662     0.12500
H477        H  0.14609005  0.61730220  0.92862834     0.11900
H478        H  0.18320781  0.65737386  0.95297394     0.12200
H479        H  0.10357566  0.57455639  0.93937318     0.14900
H480        H  0.05380956  0.60176558  0.98669353     0.13700
H481        H  0.17650333  0.68870535  0.04641101     0.11400
H482        H  0.21018250  0.69854891  0.97771481     0.13400
C483        C  0.01121289  0.99810460  0.75094455     0.19500
C484        C  0.03276669  0.01613984  0.73192779    -0.18600
C485        C  0.03117031  0.01565726  0.69519651    -0.10900
C486        C  0.50798966  0.49686225  0.67675837     0.21700
C487        C  0.48741079  0.47790877  0.69595496    -0.20200
C488        C  0.48897274  0.47844421  0.73253625    -0.11100
C489        C  0.50447236  0.49570914  0.63777752    -0.15200
C490        C  0.01674577  0.51704843  0.61588556    -0.29100
C491        C  0.01268724  0.99982634  0.78987098    -0.03400
C492        C  0.98632187  0.49436733  0.80824571    -0.39900
H493        H  0.05057628  0.03098517  0.74551403     0.12900
H494        H  0.04829436  0.02984688  0.68162319     0.12500
H495        H  0.46979248  0.46273545  0.68256504     0.11900
H496        H  0.47291090  0.46314502  0.74624496     0.12200
H497        H  0.49000557  0.47674853  0.62657507     0.14900
H498        H  0.03071283  0.03664164  0.62605720     0.13700
H499        H  0.03558771  0.00674361  0.80353347     0.11400
H500        H  0.46293831  0.48920757  0.79451989     0.13400
C501        C  0.48484427  0.50241453  0.14109854     0.19500
C502        C  0.47410645  0.52650818  0.16162184    -0.18600
C503        C  0.47894299  0.52494543  0.19826892    -0.10900
C504        C  0.99480691  0.99912686  0.21521495     0.21700
C505        C  0.00559718  0.97512154  0.19464585    -0.20200
C506        C  0.00082458  0.97670398  0.15812327    -0.11100
C507        C  0.00226960  0.99667680  0.25386443    -0.15200
C508        C  0.98919427  0.51482610  0.27751137    -0.29100
C509        C  0.48071389  0.50570489  0.10213152    -0.03400
C510        C  0.98226407  0.48151512  0.08063585    -0.39900
H511        H  0.46217965  0.54678378  0.14921970     0.12900
H512        H  0.47089544  0.54436299  0.21287734     0.12500
H513        H  0.01826881  0.95515537  0.20687757     0.11900
H514        H  0.01066289  0.95809301  0.14353977     0.12200
H515        H  0.01939091  0.97858351  0.26333072     0.14900
H516        H  0.47113651  0.53239429  0.26929066     0.13700
H517        H  0.47649418  0.52887877  0.09079103     0.11400
H518        H  0.98517679  0.95806200  0.09138471     0.13400
C519        C  0.26045813  0.75997211  0.65042472     0.19500
C520        C  0.25115754  0.78566225  0.66937258    -0.18600
C521        C  0.25305046  0.78460333  0.70603914    -0.10900
C522        C  0.26437868  0.75766721  0.72472072     0.21700
C523        C  0.27400992  0.73208438  0.70578175    -0.20200
C524        C  0.27204848  0.73312474  0.66906251    -0.11100
C525        C  0.26805547  0.75594000  0.76375935    -0.15200
C526        C  0.25163255  0.77446781  0.78434048    -0.29100
C527        C  0.25944034  0.76290901  0.61149263    -0.03400
C528        C  0.25920696  0.73860083  0.58989430    -0.39900
H529        H  0.24265507  0.80681289  0.65572961     0.12900
H530        H  0.24647135  0.80528137  0.71944069     0.12500
H531        H  0.28331760  0.71124589  0.71947411     0.11900
H532        H  0.28047186  0.71316597  0.65558844     0.12200
H533        H  0.28457626  0.73845730  0.77594659     0.14900
H534        H  0.23383640  0.79102104  0.77275971     0.13700
H535        H  0.25833957  0.78631113  0.60010442     0.11400
H536        H  0.25871244  0.71497395  0.60036819     0.13400
C537        C  0.34029504  0.68362023  0.89495594     0.19500
C538        C  0.34815005  0.65889654  0.87382959    -0.18600
C539        C  0.36560254  0.63325897  0.88803210    -0.10900
C540        C  0.37575105  0.63162010  0.92394234     0.21700
C541        C  0.36885436  0.65674530  0.94502876    -0.20200
C542        C  0.35109800  0.68248834  0.93078544    -0.11100
C543        C  0.39541929  0.60485463  0.93903448    -0.15200
C544        C  0.39251745  0.57626021  0.92563523    -0.29100
C545        C  0.32098032  0.70979004  0.87798121    -0.03400
C546        C  0.30420464  0.73079297  0.89516716    -0.39900
H547        H  0.34062258  0.65932269  0.84607861     0.12900
H548        H  0.37171911  0.61509377  0.87052411     0.12500
H549        H  0.37709971  0.65637387  0.97257818     0.11900
H550        H  0.34636237  0.70143466  0.94780215     0.12200
H551        H  0.41352676  0.60909866  0.96051044     0.14900
H552        H  0.37357687  0.57177731  0.90509297     0.13700
H553        H  0.31882661  0.71051692  0.84946312     0.11400
H554        H  0.30500576  0.73034032  0.92359441     0.13400
C555        C  0.13052512  0.89238020  0.92292344     0.19500
C556        C  0.16459211  0.89605598  0.92762608    -0.18600
C557        C  0.18559708  0.87312749  0.91655117    -0.10900
C558        C  0.17265143  0.84669274  0.89973282     0.21700
C559        C  0.13866853  0.84302383  0.89524853    -0.20200
C560        C  0.11778177  0.86543980  0.90702492    -0.11100
C561        C  0.19358233  0.82446793  0.88279515    -0.15200
C562        C  0.22288501  0.81462677  0.89667946    -0.29100
C563        C  0.10838168  0.91785702  0.93149986    -0.03400
C564        C  0.07890441  0.91198859  0.94354594    -0.39900
H565        H  0.17488433  0.91686129  0.93935557     0.12900
H566        H  0.21179399  0.87677540  0.91954243     0.12500
H567        H  0.12825304  0.82303957  0.88186349     0.11900
H568        H  0.09164316  0.86235389  0.90211688     0.12200
H569        H  0.18379093  0.81503891  0.85809804     0.14900
H570        H  0.23186926  0.82156461  0.92273484     0.13700
H571        H  0.11595811  0.94168696  0.92659593     0.11400
H572        H  0.07245374  0.88829935  0.95078254     0.13400
C573        C  0.78211686  0.25360175  0.87605659     0.81000
N574        N  0.77796448  0.25370067  0.84037881    -0.77300
C575        C  0.75633460  0.27350058  0.82301944     0.83400
N576        N  0.73870355  0.29307196  0.84152920    -0.77300
C577        C  0.74264605  0.29330246  0.87709584     0.83500
N578        N  0.76449746  0.27361449  0.89433048    -0.79000
O579        O  0.93792326  0.05332759  0.95966566    -0.77700
C580        C  0.48133643  0.98497972  0.04206229     0.83300
O581        O  0.54964178  0.03986661  0.93591878    -0.78800
O582        O  0.52859779  0.42902214  0.96219007    -0.80300
O583        O  0.91669276  0.44972472  0.91908154    -0.80100
O584        O  0.91546555  0.02799438  0.91383540    -0.78700
Zn585      Zn  0.47765360  0.02707898  0.97626064     1.55700
O586        O  0.94716618  0.42320732  0.95996836    -0.80100
Cd587      Cd  0.94474440  0.98939360  0.91092700     1.59700
Cd588      Cd  0.52470670  0.99956197  0.91946364     1.59600
O589        O  0.95996103  0.98918354  0.86065045    -0.80100
O590        O  0.48360552  0.99272131  0.94501637    -1.90600
Cd591      Cd  0.48649710  0.45247068  0.97204025     1.59900
O592        O  0.51319869  0.00116374  0.86525213    -0.80100
O593        O  0.48682174  0.46076257  0.02488866    -0.78700
C594        C  0.54225172  0.05901378  0.95914117     0.83800
C595        C  0.91637278  0.05107477  0.93409041     0.81900
O596        O  0.47581390  0.01144709  0.02692085    -0.77700
C597        C  0.92162255  0.42580082  0.93907467     0.84300
O598        O  0.51628111  0.05595432  0.97539053    -0.77800
C599        C  0.48679427  0.99510737  0.84686280     0.84400
C600        C  0.55353703  0.43597169  0.94547950     0.84700
O601        O  0.55624905  0.46202492  0.92923290    -0.80200
C602        C  0.76917245  0.25876779  0.03404186     0.81000
N603        N  0.76406637  0.26023019  0.06874136    -0.77300
C604        C  0.73988929  0.24341905  0.08265024     0.83400
N605        N  0.72104629  0.22475941  0.06164991    -0.77300
C606        C  0.72577716  0.22272317  0.02690233     0.83500
N607        N  0.74999020  0.23989087  0.01300301    -0.79000
C608        C  0.99157439  0.02601739  0.37371228     0.81000
N609        N  0.98339842  0.02884868  0.33863706    -0.77300
C610        C  0.49839482  0.01133713  0.31553212     0.83400
N611        N  0.52161280  0.49067724  0.32770303    -0.77300
C612        C  0.53023173  0.48747530  0.36250289     0.83500
N613        N  0.51529102  0.00532991  0.38574938    -0.79000
O614        O  0.79163678  0.18058196  0.47026704    -0.77700
C615        C  0.75922601  0.24289909  0.55137317     0.83300
O616        O  0.68807896  0.22435273  0.42460788    -0.78800
O617        O  0.72593662  0.31840641  0.47624050    -0.80300
O618        O  0.83507805  0.28315152  0.44642310    -0.80100
O619        O  0.82583902  0.20671331  0.43760284    -0.78700
Zn620      Zn  0.75613444  0.21171422  0.47984988     1.55700
O621        O  0.80685561  0.30987449  0.48359470    -0.80100
Cd622      Cd  0.80246722  0.24921065  0.42910514     1.59700
Cd623      Cd  0.72284985  0.25871420  0.41928500     1.59600
O624        O  0.79211388  0.25531246  0.37538296    -0.80100
O625        O  0.76108271  0.25091772  0.45405143    -1.90600
Cd626      Cd  0.76330915  0.28637047  0.48696054     1.59900
O627        O  0.73765936  0.25932171  0.36836048    -0.80100
O628        O  0.76112066  0.27024552  0.53807317    -0.78700
C629        C  0.68814910  0.19996101  0.44416137     0.83800
C630        C  0.81767216  0.18199205  0.45383835     0.83500
O631        O  0.75758376  0.21891442  0.53236463    -0.77700
C632        C  0.83252011  0.30548921  0.46729864     0.84300
O633        O  0.71245065  0.19262428  0.46541775    -0.77800
C634        C  0.76572697  0.25828577  0.35581662     0.84400
C635        C  0.70346516  0.32091781  0.45160987     0.84700
O636        O  0.69976457  0.30072469  0.42773606    -0.80200
C637        C  0.98703031  0.49130416  0.52707955     0.81000
N638        N  0.99164271  0.49299202  0.56252680    -0.77300
C639        C  0.51145482  0.51509228  0.57732160     0.83400
N640        N  0.52670424  0.03554406  0.55632729    -0.77300
C641        C  0.52242042  0.03380970  0.52080078     0.83500
N642        N  0.50257674  0.01166016  0.50629119    -0.79000
C643        C  0.62899976  0.13404938  0.46372601     0.19500
C644        C  0.62876848  0.10157078  0.46171253    -0.18600
C645        C  0.60285578  0.08432022  0.47410069    -0.10900
C646        C  0.57718280  0.09934246  0.48954444     0.21700
C647        C  0.57696719  0.13184840  0.49068834    -0.20200
C648        C  0.60244896  0.14913938  0.47749506    -0.11100
C649        C  0.55312660  0.08142570  0.50883786    -0.15200
C650        C  0.54130621  0.05396921  0.49803118    -0.29100
C651        C  0.65903590  0.15134841  0.45630508    -0.03400
C652        C  0.65841774  0.18068982  0.44353938    -0.39900
H653        H  0.64922224  0.08949589  0.45167153     0.12900
H654        H  0.60399690  0.05919725  0.47364422     0.12500
H655        H  0.55761544  0.14379288  0.50290976     0.11900
H656        H  0.60238059  0.17412119  0.48020922     0.12200
H657        H  0.54571841  0.09072820  0.53328149     0.14900
H658        H  0.54640235  0.04566084  0.47233455     0.13700
H659        H  0.68240625  0.14005568  0.46321903     0.11400
H660        H  0.63533683  0.19136489  0.43411819     0.13400
C661        C  0.93203370  0.41995293  0.51397793     0.19500
C662        C  0.93594900  0.38818415  0.52216382    -0.18600
C663        C  0.91192139  0.36693572  0.51083299    -0.10900
C664        C  0.88323344  0.37735592  0.49188294     0.21700
C665        C  0.87928335  0.40911719  0.48378430    -0.20200
C666        C  0.90364537  0.43025827  0.49436996    -0.11100
C667        C  0.85587277  0.35598032  0.48318362    -0.15200
C668        C  0.86038410  0.32670804  0.47320848    -0.29100
C669        C  0.95649499  0.44221060  0.52854921    -0.03400
C670        C  0.96456923  0.46819668  0.51103797    -0.39900
H671        H  0.95746624  0.37988240  0.53766121     0.12900
H672        H  0.91515093  0.34260838  0.51815212     0.12500
H673        H  0.85711209  0.41759538  0.46962688     0.11900
H674        H  0.89964138  0.45475447  0.48847572     0.12200
H675        H  0.83113921  0.36485810  0.48443661     0.14900
H676        H  0.88477821  0.31838834  0.46883626     0.13700
H677        H  0.96853283  0.43678886  0.55420401     0.11400
H678        H  0.95475805  0.47248856  0.48422478     0.13400
C679        C  0.63309991  0.37892873  0.42411323     0.19500
C680        C  0.60579865  0.37707090  0.40001029    -0.18600
C681        C  0.58378389  0.40173736  0.39499133    -0.10900
C682        C  0.58860059  0.42929831  0.41369289     0.21700
C683        C  0.61515256  0.43094736  0.43884260    -0.20200
C684        C  0.63740714  0.40611570  0.44388094    -0.11100
C685        C  0.56633058  0.45642479  0.40634186    -0.15200
C686        C  0.55430099  0.46295271  0.37334310    -0.29100
C687        C  0.65644115  0.35220269  0.42647726    -0.03400
C688        C  0.68129066  0.34818693  0.45113113    -0.39900
H689        H  0.60153596  0.35642580  0.38467989     0.12900
H690        H  0.56294580  0.39919068  0.37626795     0.12500
H691        H  0.61925336  0.45182986  0.45378097     0.11900
H692        H  0.65813492  0.40877043  0.46262046     0.12200
H693        H  0.56054462  0.47128933  0.42763415     0.14900
H694        H  0.56239291  0.44903686  0.35222281     0.13700
H695        H  0.65262831  0.33453719  0.40675025     0.11400
H696        H  0.68553756  0.36481556  0.47179597     0.13400
C697        C  0.88818533  0.12680110  0.43530009     0.19500
C698        C  0.92248788  0.12656718  0.44080020    -0.18600
C699        C  0.94102049  0.10238868  0.42810475    -0.10900
C700        C  0.92547265  0.07841760  0.40894698     0.21700
C701        C  0.89117961  0.07827003  0.40436489    -0.20200
C702        C  0.87269575  0.10198729  0.41762513    -0.11100
C703        C  0.94391548  0.05598243  0.38895665    -0.15200
C704        C  0.97437254  0.04545217  0.39816267    -0.29100
C705        C  0.86937678  0.15484267  0.44384242    -0.03400
C706        C  0.83798448  0.15370963  0.45228604    -0.39900
H707        H  0.93500193  0.14564345  0.45394886     0.12900
H708        H  0.96745558  0.10351955  0.43141927     0.12500
H709        H  0.87866894  0.06029793  0.38927349     0.11900
H710        H  0.84642209  0.10180941  0.41207494     0.12200
H711        H  0.93150284  0.04780963  0.36483925     0.14900
H712        H  0.98652698  0.05103522  0.42337601     0.13700
H713        H  0.88142720  0.17725906  0.44177332     0.11400
H714        H  0.82648017  0.13140628  0.45709129     0.13400
C715        C  0.74444580  0.26149916  0.25559381     0.19500
C716        C  0.71928785  0.24848889  0.23386863    -0.18600
C717        C  0.72101149  0.24864367  0.19740237    -0.10900
C718        C  0.74805963  0.26202609  0.18177605     0.21700
C719        C  0.77258386  0.27605168  0.20352305    -0.20200
C720        C  0.77087751  0.27581832  0.23995755    -0.11100
C721        C  0.75185784  0.26208291  0.14320018    -0.15200
C722        C  0.73421847  0.24419577  0.12045273    -0.29100
C723        C  0.74200812  0.26026004  0.29427853    -0.03400
C724        C  0.76833158  0.26056090  0.31743768    -0.39900
H725        H  0.69835706  0.23781226  0.24519987     0.12900
H726        H  0.70094115  0.23844910  0.18186040     0.12500
H727        H  0.79339628  0.28703411  0.19229354     0.11900
H728        H  0.79013701  0.28716025  0.25567219     0.12200
H729        H  0.77103244  0.27665684  0.13331705     0.14900
H730        H  0.71552513  0.22873911  0.12951366     0.13700
H731        H  0.71781311  0.25743894  0.30394720     0.11400
H732        H  0.79277479  0.26140629  0.30816292     0.13400
C733        C  0.82709869  0.30494198  0.97628018     0.19500
C734        C  0.82136116  0.32682454  0.94869444    -0.18600
C735        C  0.84525648  0.34900434  0.94123011    -0.10900
C736        C  0.87560953  0.34941896  0.96107037     0.21700
C737        C  0.88196446  0.32607609  0.98698316    -0.20200
C738        C  0.85808248  0.30417228  0.99455607    -0.11100
C739        C  0.90104493  0.37395410  0.95698439    -0.15200
C740        C  0.89649683  0.40086293  0.93838175    -0.29100
C741        C  0.80019513  0.28409412  0.98681287    -0.03400
C742        C  0.79647409  0.27716546  0.02084929    -0.39900
H743        H  0.79788486  0.32755389  0.93381494     0.12900
H744        H  0.83950684  0.36586863  0.92031917     0.12500
H745        H  0.90524536  0.32530534  0.00225846     0.11900
H746        H  0.86375148  0.28690041  0.01515110     0.12200
H747        H  0.92435350  0.37038452  0.97191115     0.14900
H748        H  0.87359653  0.40555028  0.92329183     0.13700
H749        H  0.78180861  0.27665993  0.96694214     0.11400
H750        H  0.81340241  0.28705912  0.04070186     0.13400
C751        C  0.65894948  0.16140739  0.00146422     0.19500
C752        C  0.63319041  0.14973777  0.02029828    -0.18600
C753        C  0.61228006  0.12685493  0.00656244    -0.10900
C754        C  0.61613569  0.11502030  0.97310101     0.21700
C755        C  0.64215388  0.12634797  0.95420072    -0.20200
C756        C  0.66333680  0.14943973  0.96811867    -0.11100
C757        C  0.59425440  0.08991073  0.95851828    -0.15200
C758        C  0.56372469  0.08554867  0.96889449    -0.29100
C759        C  0.68091233  0.18476014  0.01916132    -0.03400
C760        C  0.70516932  0.20108354  0.00498788    -0.39900
H761        H  0.62940692  0.15806154  0.04624957     0.12900
H762        H  0.59369992  0.11797914  0.02290677     0.12500
H763        H  0.64609002  0.11730235  0.92862827     0.11900
H764        H  0.68320790  0.15737392  0.95297393     0.12200
H765        H  0.60357563  0.07455649  0.93937310     0.14900
H766        H  0.55380966  0.10176554  0.98669374     0.13700
H767        H  0.67650344  0.18870528  0.04641107     0.11400
H768        H  0.71018248  0.19854890  0.97771480     0.13400
C769        C  0.51121301  0.49810465  0.75094457     0.19500
C770        C  0.53276670  0.51613990  0.73192776    -0.18600
C771        C  0.53117034  0.51565734  0.69519647    -0.10900
C772        C  0.00798963  0.99686230  0.67675837     0.21700
C773        C  0.98741063  0.97790884  0.69595491    -0.20200
C774        C  0.98897262  0.97844423  0.73253622    -0.11100
C775        C  0.00447240  0.99570913  0.63777752    -0.15200
C776        C  0.51674569  0.01704846  0.61588557    -0.29100
C777        C  0.51268731  0.49982636  0.78987100    -0.03400
C778        C  0.48632195  0.99436728  0.80824571    -0.39900
H779        H  0.55057637  0.53098539  0.74551402     0.12900
H780        H  0.54829421  0.52984693  0.68162319     0.12500
H781        H  0.96979235  0.96273563  0.68256501     0.11900
H782        H  0.97291075  0.96314500  0.74624493     0.12200
H783        H  0.99000565  0.97674857  0.62657509     0.14900
H784        H  0.53071276  0.53664168  0.62605722     0.13700
H785        H  0.53558785  0.50674363  0.80353355     0.11400
H786        H  0.96293826  0.98920753  0.79451998     0.13400
C787        C  0.98484426  0.00241454  0.14109853     0.19500
C788        C  0.97410651  0.02650823  0.16162183    -0.18600
C789        C  0.97894305  0.02494549  0.19826891    -0.10900
C790        C  0.49480694  0.49912683  0.21521495     0.21700
C791        C  0.50559716  0.47512150  0.19464584    -0.20200
C792        C  0.50082465  0.47670399  0.15812325    -0.11100
C793        C  0.50226970  0.49667682  0.25386442    -0.15200
C794        C  0.48919434  0.01482610  0.27751137    -0.29100
C795        C  0.98071394  0.00570490  0.10213152    -0.03400
C796        C  0.48226400  0.98151511  0.08063586    -0.39900
H797        H  0.96217974  0.04678387  0.14921968     0.12900
H798        H  0.97089554  0.04436308  0.21287734     0.12500
H799        H  0.51826877  0.45515528  0.20687758     0.11900
H800        H  0.51066303  0.45809308  0.14353973     0.12200
H801        H  0.51939106  0.47858353  0.26333072     0.14900
H802        H  0.97113645  0.03239433  0.26929066     0.13700
H803        H  0.97649421  0.02887876  0.09079102     0.11400
H804        H  0.48517666  0.45806198  0.09138472     0.13400
C805        C  0.76045818  0.25997202  0.65042473     0.19500
C806        C  0.75115758  0.28566221  0.66937254    -0.18600
C807        C  0.75305046  0.28460328  0.70603911    -0.10900
C808        C  0.76437874  0.25766723  0.72472072     0.21700
C809        C  0.77401003  0.23208438  0.70578177    -0.20200
C810        C  0.77204852  0.23312469  0.66906254    -0.11100
C811        C  0.76805547  0.25594000  0.76375936    -0.15200
C812        C  0.75163255  0.27446787  0.78434047    -0.29100
C813        C  0.75944043  0.26290893  0.61149264    -0.03400
C814        C  0.75920707  0.23860080  0.58989428    -0.39900
H815        H  0.74265519  0.30681277  0.65572961     0.12900
H816        H  0.74647124  0.30528134  0.71944064     0.12500
H817        H  0.78331771  0.21124591  0.71947416     0.11900
H818        H  0.78047188  0.21316585  0.65558845     0.12200
H819        H  0.78457616  0.23845728  0.77594660     0.14900
H820        H  0.73383653  0.29102113  0.77275973     0.13700
H821        H  0.75833967  0.28631108  0.60010443     0.11400
H822        H  0.75871253  0.21497384  0.60036819     0.13400
C823        C  0.84029502  0.18362026  0.89495595     0.19500
C824        C  0.84815006  0.15889659  0.87382959    -0.18600
C825        C  0.86560252  0.13325898  0.88803212    -0.10900
C826        C  0.87575101  0.13162012  0.92394236     0.21700
C827        C  0.86885430  0.15674532  0.94502880    -0.20200
C828        C  0.85109793  0.18248836  0.93078544    -0.11100
C829        C  0.89541936  0.10485470  0.93903447    -0.15200
C830        C  0.89251756  0.07626029  0.92563522    -0.29100
C831        C  0.82098036  0.20979011  0.87798120    -0.03400
C832        C  0.80420460  0.23079297  0.89516715    -0.39900
H833        H  0.84062269  0.15932278  0.84607862     0.12900
H834        H  0.87171909  0.11509382  0.87052413     0.12500
H835        H  0.87709966  0.15637393  0.97257810     0.11900
H836        H  0.84636233  0.20143471  0.94780215     0.12200
H837        H  0.91352685  0.10909878  0.96051040     0.14900
H838        H  0.87357696  0.07177737  0.90509298     0.13700
H839        H  0.81882675  0.21051706  0.84946311     0.11400
H840        H  0.80500565  0.23034025  0.92359440     0.13400
C841        C  0.63052513  0.39238019  0.92292343     0.19500
C842        C  0.66459213  0.39605595  0.92762606    -0.18600
C843        C  0.68559708  0.37312743  0.91655119    -0.10900
C844        C  0.67265141  0.34669271  0.89973281     0.21700
C845        C  0.63866850  0.34302378  0.89524852    -0.20200
C846        C  0.61778178  0.36543978  0.90702496    -0.11100
C847        C  0.69358230  0.32446790  0.88279513    -0.15200
C848        C  0.72288498  0.31462677  0.89667947    -0.29100
C849        C  0.60838173  0.41785703  0.93149983    -0.03400
C850        C  0.57890447  0.41198861  0.94354596    -0.39900
H851        H  0.67488439  0.41686128  0.93935552     0.12900
H852        H  0.71179398  0.37677530  0.91954248     0.12500
H853        H  0.62825304  0.32303962  0.88186353     0.11900
H854        H  0.59164312  0.36235383  0.90211696     0.12200
H855        H  0.68379091  0.31503893  0.85809800     0.14900
H856        H  0.73186917  0.32156458  0.92273489     0.13700
H857        H  0.61595819  0.44168694  0.92659588     0.11400
H858        H  0.57245380  0.38829940  0.95078256     0.13400
C859        C  0.78211978  0.75360274  0.87605751     0.81000
N860        N  0.77796831  0.75370104  0.84037970    -0.77300
C861        C  0.75633923  0.77350104  0.82301920     0.83400
N862        N  0.73870803  0.79307314  0.84152789    -0.77300
C863        C  0.74264949  0.79330421  0.87709453     0.83500
N864        N  0.76450012  0.77361614  0.89433033    -0.79000
O865        O  0.93792568  0.55332824  0.95966882    -0.77700
C866        C  0.48133128  0.48498075  0.04206186     0.83300
O867        O  0.54964030  0.53986523  0.93591949    -0.78800
O868        O  0.52860021  0.92902300  0.96218645    -0.80300
O869        O  0.91669149  0.94972346  0.91907971    -0.80100
O870        O  0.91546675  0.52799558  0.91383876    -0.78700
Zn871      Zn  0.47765093  0.52707879  0.97625925     1.55700
O872        O  0.94716388  0.92320658  0.95996787    -0.80100
Cd873      Cd  0.94474540  0.48939490  0.91092854     1.59700
Cd874      Cd  0.52470582  0.49956012  0.91946512     1.59600
O875        O  0.95996012  0.48918583  0.86065124    -0.80100
O876        O  0.48360362  0.49272036  0.94501620    -1.90600
Cd877      Cd  0.48650000  0.95247114  0.97203943     1.59900
O878        O  0.51319978  0.50116044  0.86525333    -0.80100
O879        O  0.48682686  0.96076204  0.02488822    -0.78700
C880        C  0.54224932  0.55901337  0.95914047     0.83800
C881        C  0.91637452  0.55107571  0.93409415     0.81900
O882        O  0.47580994  0.51144796  0.02691965    -0.77700
C883        C  0.92162084  0.92579976  0.93907329     0.84300
O884        O  0.51627816  0.55595447  0.97538900    -0.77800
C885        C  0.48679587  0.49510423  0.84686305     0.84400
C886        C  0.55353880  0.93597302  0.94547500     0.84700
O887        O  0.55625022  0.96202661  0.92922895    -0.80200
C888        C  0.76917553  0.75876235  0.03404116     0.81000
N889        N  0.76407124  0.76022337  0.06874118    -0.77300
C890        C  0.73989445  0.74341219  0.08265054     0.83400
N891        N  0.72104990  0.72475388  0.06165011    -0.77300
C892        C  0.72577905  0.72271898  0.02690202     0.83500
N893        N  0.74999183  0.73988669  0.01300224    -0.79000
C894        C  0.99158620  0.52600905  0.37371452     0.81000
N895        N  0.98340962  0.52884108  0.33863949    -0.77300
C896        C  0.49838381  0.51134400  0.31553056     0.83400
N897        N  0.52162430  0.99067045  0.32770356    -0.77300
C898        C  0.53024387  0.98746781  0.36250321     0.83500
N899        N  0.51527868  0.50533813  0.38574819    -0.79000
O900        O  0.79164896  0.68057323  0.47027095    -0.77700
C901        C  0.75923663  0.74289222  0.55137453     0.83300
O902        O  0.68809088  0.72434337  0.42460950    -0.78800
O903        O  0.72594970  0.81839855  0.47623946    -0.80300
O904        O  0.83509048  0.78314129  0.44642378    -0.80100
O905        O  0.82585062  0.70670336  0.43760494    -0.78700
Zn906      Zn  0.75614632  0.71170577  0.47985221     1.55700
O907        O  0.80686863  0.80986516  0.48359509    -0.80100
Cd908      Cd  0.80247908  0.74920076  0.42910628     1.59700
Cd909      Cd  0.72286172  0.75870484  0.41928626     1.59600
O910        O  0.79212587  0.75530171  0.37538401    -0.80100
O911        O  0.76109469  0.75090872  0.45405270    -1.90600
Cd912      Cd  0.76332157  0.78636212  0.48696084     1.59900
O913        O  0.73767139  0.75931163  0.36836179    -0.80100
O914        O  0.76113189  0.77023833  0.53807376    -0.78700
C915        C  0.68816131  0.69995173  0.44416316     0.83800
C916        C  0.81768407  0.68198266  0.45384179     0.83500
O917        O  0.75759458  0.71890710  0.53236671    -0.77700
C918        C  0.83253303  0.80547921  0.46729910     0.84300
O919        O  0.71246290  0.69261541  0.46541966    -0.77800
C920        C  0.76573891  0.75827510  0.35581778     0.84400
C921        C  0.70347783  0.82090945  0.45160919     0.84700
O922        O  0.69977651  0.80071558  0.42773629    -0.80200
C923        C  0.98704632  0.99129132  0.52708142     0.81000
N924        N  0.99165739  0.99297983  0.56252874    -0.77300
C925        C  0.51144069  0.01510417  0.57731940     0.83400
N926        N  0.52671900  0.53553190  0.55632976    -0.77300
C927        C  0.52243643  0.53379696  0.52080320     0.83500
N928        N  0.50259332  0.51164715  0.50629335    -0.79000
C929        C  0.62901366  0.63403878  0.46372785     0.19500
C930        C  0.62878340  0.60156014  0.46171474    -0.18600
C931        C  0.60287133  0.58430895  0.47410330    -0.10900
C932        C  0.57719792  0.59933058  0.48954698     0.21700
C933        C  0.57698127  0.63183655  0.49069047    -0.20200
C934        C  0.60246247  0.64912813  0.47749689    -0.11100
C935        C  0.55314217  0.58141327  0.50884043    -0.15200
C936        C  0.54132263  0.55395642  0.49803399    -0.29100
C937        C  0.65904927  0.65133855  0.45630666    -0.03400
C938        C  0.65843032  0.68068006  0.44354119    -0.39900
H939        H  0.64923748  0.58948576  0.45167376     0.12900
H940        H  0.60401324  0.55918599  0.47364715     0.12500
H941        H  0.55762919  0.64378058  0.50291177     0.11900
H942        H  0.60239334  0.67411000  0.48021078     0.12200
H943        H  0.54573329  0.59071588  0.53328380     0.14900
H944        H  0.54641940  0.54564787  0.47233747     0.13700
H945        H  0.68241988  0.64004633  0.46322032     0.11400
H946        H  0.63534916  0.69135472  0.43412022     0.13400
C947        C  0.93204891  0.91994086  0.51397893     0.19500
C948        C  0.93596330  0.88817205  0.52216507    -0.18600
C949        C  0.91193531  0.86692413  0.51083391    -0.10900
C950        C  0.88324795  0.87734489  0.49188315     0.21700
C951        C  0.87929885  0.90910618  0.48378414    -0.20200
C952        C  0.90366119  0.93024675  0.49437020    -0.11100
C953        C  0.85588681  0.85596996  0.48318356    -0.15200
C954        C  0.86039750  0.82669748  0.47320879    -0.29100
C955        C  0.95651033  0.94219812  0.52855066    -0.03400
C956        C  0.96458557  0.96818381  0.51103944    -0.39900
H957        H  0.95748010  0.87986989  0.53766299     0.12900
H958        H  0.91516405  0.84259675  0.51815336     0.12500
H959        H  0.85712803  0.91758480  0.46962614     0.11900
H960        H  0.89965792  0.95474299  0.48847570     0.12200
H961        H  0.83115345  0.86484838  0.48443617     0.14900
H962        H  0.88479146  0.81837717  0.46883697     0.13700
H963        H  0.96854734  0.93677647  0.55420606     0.11400
H964        H  0.95477522  0.97247548  0.48422577     0.13400
C965        C  0.63311287  0.87892048  0.42411171     0.19500
C966        C  0.60581266  0.87706329  0.40000727    -0.18600
C967        C  0.58379789  0.90172973  0.39498820    -0.10900
C968        C  0.58861348  0.92929004  0.41369119     0.21700
C969        C  0.61516448  0.93093848  0.43884219    -0.20200
C970        C  0.63741907  0.90610684  0.44388065    -0.11100
C971        C  0.56634308  0.95641636  0.40634091    -0.15200
C972        C  0.55431359  0.96294529  0.37334234    -0.29100
C973        C  0.65645397  0.85219432  0.42647618    -0.03400
C974        C  0.68130366  0.84817884  0.45112990    -0.39900
H975        H  0.60155076  0.85641865  0.38467584     0.12900
H976        H  0.56296052  0.89918343  0.37626376     0.12500
H977        H  0.61926441  0.95182042  0.45378170     0.11900
H978        H  0.65814593  0.90876109  0.46262148     0.12200
H979        H  0.56055660  0.97127998  0.42763380     0.14900
H980        H  0.56240584  0.94903034  0.35222141     0.13700
H981        H  0.65264096  0.83452855  0.40674954     0.11400
H982        H  0.68555101  0.86480787  0.47179420     0.13400
C983        C  0.88819728  0.62679118  0.43530491     0.19500
C984        C  0.92249993  0.62655781  0.44080400    -0.18600
C985        C  0.94103251  0.60237923  0.42810861    -0.10900
C986        C  0.92548454  0.57840761  0.40895186     0.21700
C987        C  0.89119145  0.57825945  0.40437100    -0.20200
C988        C  0.87270762  0.60197674  0.41763121    -0.11100
C989        C  0.94392708  0.55597261  0.38896100    -0.15200
C990        C  0.97438462  0.54544309  0.39816583    -0.29100
C991        C  0.86938867  0.65483293  0.44384660    -0.03400
C992        C  0.83799646  0.65370016  0.45229050    -0.39900
H993        H  0.93501397  0.64563452  0.45395162     0.12900
H994        H  0.96746765  0.60351054  0.43142226     0.12500
H995        H  0.87868065  0.56028687  0.38928041     0.11900
H996        H  0.84643390  0.60179841  0.41208182     0.12200
H997        H  0.93151384  0.54779947  0.36484401     0.14900
H998        H  0.98653975  0.55102643  0.42337873     0.13700
H999        H  0.88143897  0.67724932  0.44177652     0.11400
H1000       H  0.82649221  0.63139685  0.45709678     0.13400
C1001       C  0.74445700  0.76148866  0.25559505     0.19500
C1002       C  0.71929780  0.74848000  0.23387018    -0.18600
C1003       C  0.72102063  0.74863505  0.19740380    -0.10900
C1004       C  0.74806926  0.76201604  0.18177706     0.21700
C1005       C  0.77259502  0.77603972  0.20352378    -0.20200
C1006       C  0.77088943  0.77580617  0.23995838    -0.11100
C1007       C  0.75186627  0.76207357  0.14320097    -0.15200
C1008       C  0.73422522  0.74418778  0.12045348    -0.29100
C1009       C  0.74201971  0.76024975  0.29427982    -0.03400
C1010       C  0.76834334  0.76054969  0.31743878    -0.39900
H1011       H  0.69836653  0.73780462  0.24520171     0.12900
H1012       H  0.70094926  0.73844198  0.18186209     0.12500
H1013       H  0.79340796  0.78702094  0.19229391     0.11900
H1014       H  0.79015008  0.78714679  0.25567279     0.12200
H1015       H  0.77104118  0.77664691  0.13331764     0.14900
H1016       H  0.71553159  0.72873167  0.12951458     0.13700
H1017       H  0.71782462  0.75742976  0.30394874     0.11400
H1018       H  0.79278652  0.76139409  0.30816385     0.13400
C1019       C  0.82709836  0.80493945  0.97627829     0.19500
C1020       C  0.82135917  0.82682371  0.94869457    -0.18600
C1021       C  0.84525403  0.84900393  0.94123008    -0.10900
C1022       C  0.87560833  0.84941725  0.96106804     0.21700
C1023       C  0.88196478  0.82607280  0.98697868    -0.20200
C1024       C  0.85808325  0.80416857  0.99455179    -0.11100
C1025       C  0.90104346  0.87395277  0.95698233    -0.15200
C1026       C  0.89649523  0.90086174  0.93837992    -0.29100
C1027       C  0.80019539  0.78409113  0.98681158    -0.03400
C1028       C  0.79647675  0.77716016  0.02084792    -0.39900
H1029       H  0.79788199  0.82755406  0.93381692     0.12900
H1030       H  0.83950293  0.86586961  0.92032100     0.12500
H1031       H  0.90524655  0.82530112  0.00225226     0.11900
H1032       H  0.86375351  0.78689547  0.01514516     0.12200
H1033       H  0.92435205  0.87038321  0.97190890     0.14900
H1034       H  0.87359514  0.90554902  0.92328972     0.13700
H1035       H  0.78180716  0.77665865  0.96694166     0.11400
H1036       H  0.81340666  0.78705216  0.04070011     0.13400
C1037       C  0.65894781  0.66140688  0.00146329     0.19500
C1038       C  0.63318533  0.64974153  0.02029506    -0.18600
C1039       C  0.61227453  0.62685888  0.00655955    -0.10900
C1040       C  0.61613330  0.61502004  0.97310066     0.21700
C1041       C  0.64215461  0.62634384  0.95420255    -0.20200
C1042       C  0.66333792  0.64943543  0.96812011    -0.11100
C1043       C  0.59425236  0.58990978  0.95851881    -0.15200
C1044       C  0.56372176  0.58554886  0.96889293    -0.29100
C1045       C  0.68091180  0.68475851  0.01916072    -0.03400
C1046       C  0.70516966  0.70108070  0.00498739    -0.39900
H1047       H  0.62939964  0.65806836  0.04624457     0.12900
H1048       H  0.59369180  0.61798638  0.02290249     0.12500
H1049       H  0.64609318  0.61729494  0.92863202     0.11900
H1050       H  0.68321173  0.65736618  0.95297744     0.12200
H1051       H  0.60357482  0.57455372  0.93937609     0.14900
H1052       H  0.55380542  0.60176713  0.98668978     0.13700
H1053       H  0.67650289  0.68870398  0.04641047     0.11400
H1054       H  0.71018229  0.69854612  0.97771417     0.13400
C1055       C  0.51120700  0.99811123  0.75094266     0.19500
C1056       C  0.53275928  0.01614766  0.73192528    -0.18600
C1057       C  0.53116114  0.01566630  0.69519387    -0.10900
C1058       C  0.00798004  0.49687144  0.67675621     0.21700
C1059       C  0.98740247  0.47791683  0.69595323    -0.20200
C1060       C  0.98896622  0.47845103  0.73253465    -0.11100
C1061       C  0.00446099  0.49571942  0.63777530    -0.15200
C1062       C  0.51675823  0.51703747  0.61588779    -0.29100
C1063       C  0.51268308  0.99983170  0.78986930    -0.03400
C1064       C  0.48632509  0.49436326  0.80824611    -0.39900
H1065       H  0.55056914  0.03099309  0.74551116     0.12900
H1066       H  0.54828399  0.02985673  0.68162015     0.12500
H1067       H  0.96978402  0.46274369  0.68256368     0.11900
H1068       H  0.97290538  0.46315097  0.74624366     0.12200
H1069       H  0.98999396  0.47675907  0.62657291     0.14900
H1070       H  0.53070056  0.03665242  0.62605498     0.13700
H1071       H  0.53558394  0.00674927  0.80353095     0.11400
H1072       H  0.96293467  0.48921136  0.79452052     0.13400
C1073       C  0.98485175  0.50241142  0.14109969     0.19500
C1074       C  0.97411332  0.52650410  0.16162401    -0.18600
C1075       C  0.97895077  0.52494067  0.19827100    -0.10900
C1076       C  0.49481616  0.99912231  0.21521596     0.21700
C1077       C  0.50560705  0.97511801  0.19464582    -0.20200
C1078       C  0.50083367  0.97670119  0.15812331    -0.11100
C1079       C  0.50227971  0.99667150  0.25386530    -0.15200
C1080       C  0.48918402  0.51483214  0.27750959    -0.29100
C1081       C  0.98072021  0.50570253  0.10213276    -0.03400
C1082       C  0.48225740  0.48151691  0.08063539    -0.39900
H1083       H  0.96218525  0.54677942  0.14922275     0.12900
H1084       H  0.97090260  0.54435755  0.21288020     0.12500
H1085       H  0.51827982  0.95515202  0.20687668     0.11900
H1086       H  0.51067252  0.95809105  0.14353896     0.12200
H1087       H  0.51940144  0.97857824  0.26333072     0.14900
H1088       H  0.97114652  0.53238826  0.26929335     0.13700
H1089       H  0.97649914  0.52887642  0.09079302     0.11400
H1090       H  0.48518445  0.95806007  0.09138457     0.13400
C1091       C  0.76046619  0.75996768  0.65042536     0.19500
C1092       C  0.75116536  0.78565847  0.66937203    -0.18600
C1093       C  0.75305742  0.78460054  0.70603860    -0.10900
C1094       C  0.76438499  0.75766482  0.72472139     0.21700
C1095       C  0.77401644  0.73208133  0.70578360    -0.20200
C1096       C  0.77205584  0.73312067  0.66906435    -0.11100
C1097       C  0.76806091  0.75593862  0.76376010    -0.15200
C1098       C  0.75163812  0.77446754  0.78434018    -0.29100
C1099       C  0.75944951  0.76290358  0.61149324    -0.03400
C1100       C  0.75921666  0.73859491  0.58989568    -0.39900
H1101       H  0.74266345  0.80680881  0.65572817     0.12900
H1102       H  0.74647814  0.80527906  0.71943920     0.12500
H1103       H  0.78332364  0.71124312  0.71947688     0.11900
H1104       H  0.78047935  0.71316142  0.65559127     0.12200
H1105       H  0.78458089  0.73845578  0.77594831     0.14900
H1106       H  0.73384273  0.79102103  0.77275850     0.13700
H1107       H  0.75834914  0.78630549  0.60010425     0.11400
H1108       H  0.75872173  0.71496818  0.60037028     0.13400
C1109       C  0.84029739  0.68362105  0.89495941     0.19500
C1110       C  0.84815306  0.65889741  0.87383331    -0.18600
C1111       C  0.86560550  0.63325997  0.88803621    -0.10900
C1112       C  0.87575337  0.63162122  0.92394663     0.21700
C1113       C  0.86885600  0.65674633  0.94503285    -0.20200
C1114       C  0.85109957  0.68248923  0.93078914    -0.11100
C1115       C  0.89542157  0.60485578  0.93903891    -0.15200
C1116       C  0.89251916  0.57626130  0.92563996    -0.29100
C1117       C  0.82098298  0.70979079  0.87798402    -0.03400
C1118       C  0.80420684  0.73079395  0.89516917    -0.39900
H1119       H  0.84062622  0.65932351  0.84608221     0.12900
H1120       H  0.87172255  0.61509485  0.87052847     0.12500
H1121       H  0.87710083  0.65637495  0.97258247     0.11900
H1122       H  0.84636332  0.70143548  0.94780565     0.12200
H1123       H  0.91352959  0.60909991  0.96051437     0.14900
H1124       H  0.87357799  0.57177849  0.90509822     0.13700
H1125       H  0.81883010  0.71051750  0.84946598     0.11400
H1126       H  0.80500722  0.73034155  0.92359640     0.13400
C1127       C  0.63052753  0.89238311  0.92291770     0.19500
C1128       C  0.66459445  0.89605862  0.92762236    -0.18600
C1129       C  0.68559990  0.87313039  0.91654779    -0.10900
C1130       C  0.67265485  0.84669620  0.89972780     0.21700
C1131       C  0.63867201  0.84302762  0.89524137    -0.20200
C1132       C  0.61778476  0.86544333  0.90701737    -0.11100
C1133       C  0.69358640  0.82447147  0.88279086    -0.15200
C1134       C  0.72288805  0.81462918  0.89667703    -0.29100
C1135       C  0.60838367  0.91785938  0.93149458    -0.03400
C1136       C  0.57890626  0.91199020  0.94353993    -0.39900
H1137       H  0.67488625  0.91686349  0.93935338     0.12900
H1138       H  0.71179682  0.87677802  0.91954078     0.12500
H1139       H  0.62825705  0.82304383  0.88185515     0.11900
H1140       H  0.59164623  0.86235766  0.90210785     0.12200
H1141       H  0.68379610  0.81504321  0.85809299     0.14900
H1142       H  0.73187089  0.82156631  0.92273296     0.13700
H1143       H  0.61596009  0.94168957  0.92659209     0.11400
H1144       H  0.57245569  0.88830061  0.95077526     0.13400
loop_ 
_geom_bond_atom_site_label_1 
_geom_bond_atom_site_label_2 
_geom_bond_distance 
_geom_bond_site_symmetry_2 
_ccdc_geom_bond_type 
C1            N2   1.362       .  A
C1            N6   1.360       .  A
C1          C260   1.480       .  S
N2            C3   1.358       .  A
C3            N4   1.353       .  A
C3          C240   1.477       .  S
N4            C5   1.358       .  A
C5            N6   1.359       .  A
C5          C276   1.475       .  S
O7           C23   1.277       .  A
O7         Zn585   2.038       .  S
C8          C224   1.476       .  S
C8           O24   1.278   1_565  A
C8          O307   1.273       .  A
O9           C22   1.277       .  A
O9          Cd16   2.100   1_545  S
O10          C28   1.273       .  A
O10         Cd19   2.060   1_455  S
O11          C25   1.275       .  A
O11        Cd301   2.086       .  S
O12          C23   1.273       .  A
O12         Cd15   2.059   1_545  S
Zn13         O24   2.040   1_556  S
Zn13         O26   2.012   1_655  S
Zn13        O579   2.038       .  S
Zn13         O18   1.949   1_545  S
O14          C25   1.275       .  A
O14        Cd591   2.078       .  S
Cd15         O17   2.061       .  S
Cd15        O297   2.086       .  S
Cd15        O590   1.994       .  S
Cd16         O20   2.092   1_565  S
Cd16        O315   2.080       .  S
Cd16         O18   2.021   1_455  S
O17         C599   1.274       .  A
O18        Cd587   1.994       .  S
O18        Cd305   1.994       .  S
Cd19         O21   2.059   1_556  S
Cd19        O586   2.078       .  S
Cd19        O304   1.994       .  S
O20          C27   1.279   1_445  A
O21         C294   1.273       .  A
C22         C186   1.480       .  S
C22          O26   1.273       .  A
C23         C258   1.475       .  S
C25         C168   1.486       .  S
C27         C206   1.476       .  S
C27         O589   1.274       .  A
C28         C278   1.472       .  S
C28          O29   1.277       .  A
O29        Cd302   2.080       .  S
C30          N31   1.360       .  A
C30          N35   1.367       .  A
C30         C170   1.479       .  S
N31          C32   1.356       .  A
C32          N33   1.353       .  A
C32         C150   1.480       .  S
N33          C34   1.360       .  A
C34          N35   1.365       .  A
C34         C188   1.490       .  S
C36          N37   1.362       .  A
C36         N613   1.366       .  A
C36         C132   1.483       .  S
N37         C610   1.353       .  A
C38         N609   1.353       .  A
C38         N325   1.354   1_645  A
C38         C222   1.480       .  S
N39          C40   1.356       .  A
N39         C324   1.354   1_455  A
C40         N327   1.365       .  A
C40         C114   1.477       .  S
N41         C608   1.366   1_455  A
N41         C326   1.365   1_545  A
O42          C58   1.275       .  A
O42         Zn48   2.036       .  S
C43         C242   1.479       .  S
C43          O59   1.276       .  A
C43          O56   1.275       .  A
O44          C57   1.273       .  A
O44         Cd51   2.068       .  S
O45          C63   1.273       .  A
O45         Cd54   2.074       .  S
O46          C60   1.273       .  A
O46         Cd50   2.068       .  S
O47          C58   1.274       .  A
O47         Cd50   2.073       .  S
Zn48         O59   2.035       .  S
Zn48         O61   2.016       .  S
Zn48         O53   1.951       .  S
O49          C60   1.275       .  A
O49         Cd54   2.060       .  S
Cd50         O52   2.078       .  S
Cd50         O53   2.003       .  S
Cd51         O55   2.078       .  S
Cd51         O64   2.083       .  S
Cd51         O53   2.006       .  S
O52          C62   1.276       .  A
O53         Cd54   1.999       .  S
Cd54         O56   2.065       .  S
O55          C62   1.277       .  A
C57          C80   1.472       .  S
C57          O61   1.276       .  A
C58         C134   1.480       .  S
C60          C96   1.470       .  S
C62         C152   1.479       .  S
C63         C116   1.483       .  S
C63          O64   1.277       .  A
C65          N66   1.359       .  A
C65         N928   1.356       .  A
C65          C98   1.470       .  S
N66         C639   1.358       .  A
C67         N638   1.358   1_455  A
C67         N354   1.357       .  A
C67         C490   1.479       .  S
N68          C69   1.361       .  A
N68         C353   1.357       .  A
C69          N70   1.356       .  A
C69          C78   1.471       .  S
N70         C923   1.356   1_445  A
C71          C79   1.478       .  S
C71          C72   1.402       .  A
C71          C76   1.406       .  A
C72          C73   1.397       .  A
C72          H81   1.083       .  S
C73          C74   1.406       .  A
C73          H82   1.083       .  S
C74          C77   1.476       .  S
C74          C75   1.401       .  A
C75          C76   1.396       .  A
C75          H83   1.084       .  S
C76          H84   1.083       .  S
C77          H85   1.087       .  S
C77          C78   1.340       .  D
C78          H86   1.087       .  S
C79          H87   1.087       .  S
C79          C80   1.342       .  D
C80          H88   1.086       .  S
C89          C97   1.476       .  S
C89          C90   1.402       .  A
C89          C94   1.405       .  A
C90          C91   1.397       .  A
C90          H99   1.083       .  S
C91          C92   1.405       .  A
C91         H100   1.083       .  S
C92          C95   1.475       .  S
C92          C93   1.401       .  A
C93          C94   1.396       .  A
C93         H101   1.083       .  S
C94         H102   1.083       .  S
C95         H103   1.088       .  S
C95          C96   1.342       .  D
C96         H104   1.087       .  S
C97         H105   1.087       .  S
C97          C98   1.342       .  D
C98         H106   1.086       .  S
C107        C115   1.493       .  S
C107        C108   1.403       .  A
C107        C112   1.412       .  A
C108        C109   1.394       .  A
C108        H117   1.084       .  S
C109        C110   1.406       .  A
C109        H118   1.083       .  S
C110        C113   1.491       .  S
C110        C111   1.404       .  A
C111        C112   1.406       .  A
C111        H119   1.083       .  S
C112        H120   1.080       .  S
C113        H121   1.086       .  S
C113        C114   1.345       .  D
C114        H122   1.087       .  S
C115        H123   1.087       .  S
C115        C116   1.347       .  D
C116        H124   1.084       .  S
C125        C133   1.487       .  S
C125        C126   1.406       .  A
C125        C130   1.405       .  A
C126        C127   1.404       .  A
C126        H135   1.083       .  S
C127        C128   1.406       .  A
C127        H136   1.083       .  S
C128        C131   1.484       .  S
C128        C129   1.404       .  A
C129        C130   1.397       .  A
C129        H137   1.083       .  S
C130        H138   1.082       .  S
C131        H139   1.088       .  S
C131        C132   1.348       .  D
C132        H140   1.086       .  S
C133        H141   1.087       .  S
C133        C134   1.348       .  D
C134        H142   1.086       .  S
C143        C151   1.488       .  S
C143        C144   1.403       .  A
C143        C148   1.407       .  A
C144        C145   1.400       .  A
C144        H153   1.084       .  S
C145        C146   1.410       .  A
C145        H154   1.080       .  S
C146        C149   1.493       .  S
C146        C147   1.404       .  A
C147        C148   1.399       .  A
C147        H155   1.083       .  S
C148        H156   1.082       .  S
C149        H157   1.087       .  S
C149        C150   1.347       .  D
C150        H158   1.083       .  S
C151        H159   1.087       .  S
C151        C152   1.347       .  D
C152        H160   1.085       .  S
C161        C169   1.491       .  S
C161        C162   1.404       .  A
C161        C166   1.406       .  A
C162        C163   1.405       .  A
C162        H171   1.083       .  S
C163        C164   1.411       .  A
C163        H172   1.080       .  S
C164        C167   1.496       .  S
C164        C165   1.405       .  A
C165        C166   1.398       .  A
C165        H173   1.083   1_556  S
C166        H174   1.083   1_556  S
C167        H175   1.087       .  S
C167        C168   1.350       .  D
C168        H176   1.083       .  S
C169        H177   1.086       .  S
C169        C170   1.346   1_556  D
C170        H178   1.087       .  S
C179        C187   1.491       .  S
C179        C180   1.403       .  A
C179        C184   1.409   1_554  A
C180        C181   1.393       .  A
C180        H189   1.084       .  S
C181        C182   1.407   1_554  A
C181        H190   1.081       .  S
C182        C185   1.497       .  S
C182        C183   1.408       .  A
C183        C184   1.409       .  A
C183        H191   1.083       .  S
C184        H192   1.081       .  S
C185        H193   1.086       .  S
C185        C186   1.349       .  D
C186        H194   1.085       .  S
C187        H195   1.087       .  S
C187        C188   1.352       .  D
C188        H196   1.084   1_554  S
C197        C205   1.488       .  S
C197        C198   1.403       .  A
C197       C1060   1.407   1_455  A
C198        C199   1.401       .  A
C198        H207   1.083       .  S
C199       C1058   1.409       .  A
C199        H208   1.081       .  S
C200        C203   1.489       .  S
C200        C201   1.403       .  A
C200       C1057   1.409   1_565  A
C201        C202   1.396       .  A
C201        H209   1.083       .  S
C202       C1055   1.407       .  A
C202        H210   1.082       .  S
C203        H211   1.087       .  S
C203        C776   1.347   1_565  D
C204        C353   1.479       .  S
C204        H498   1.084       .  S
C204        C775   1.347   1_545  D
C205        H213   1.087       .  S
C205        C492   1.345   1_455  D
C206        H786   1.085       .  S
C206        C491   1.345   1_655  D
H212        C490   1.084       .  S
H214        C778   1.085       .  S
C215        C223   1.490       .  S
C215        C216   1.404       .  A
C215       C1078   1.408   1_545  A
C216        C217   1.401       .  A
C216        H225   1.083       .  S
C217       C1076   1.409   1_545  A
C217        H226   1.080       .  S
C218        C221   1.489   1_655  S
C218        C219   1.403   1_655  A
C218       C1075   1.409       .  A
C219        C220   1.396       .  A
C219        H227   1.083       .  S
C220       C1073   1.408   1_455  A
C220        H228   1.081       .  S
C221        H229   1.087       .  S
C221        C508   1.348   1_455  D
C222        H802   1.083       .  S
C222        C507   1.348   1_645  D
C223        H231   1.087       .  S
C223        C796   1.346   1_545  D
C224        H518   1.084       .  S
C224        C795   1.346   1_565  D
H230        C794   1.083       .  S
H232        C510   1.084       .  S
C233        C241   1.488       .  S
C233        C234   1.403       .  A
C233        C238   1.408       .  A
C234        C235   1.398       .  A
C234        H243   1.083       .  S
C235        C236   1.408       .  A
C235        H244   1.081       .  S
C236        C239   1.489       .  S
C236        C237   1.404       .  A
C237        C238   1.400       .  A
C237        H245   1.083       .  S
C238        H246   1.081       .  S
C239        H247   1.087       .  S
C239        C240   1.346       .  D
C240        H248   1.084       .  S
C241        H249   1.087       .  S
C241        C242   1.348       .  D
C242        H250   1.084       .  S
C251        C259   1.487       .  S
C251        C252   1.402       .  A
C251        C256   1.409       .  A
C252        C253   1.393       .  A
C252        H261   1.084       .  S
C253        C254   1.406       .  A
C253        H262   1.082       .  S
C254        C257   1.488       .  S
C254        C255   1.404       .  A
C255        C256   1.404       .  A
C255        H263   1.083       .  S
C256        H264   1.081       .  S
C257        H265   1.086       .  S
C257        C258   1.346       .  D
C258        H266   1.086       .  S
C259        H267   1.087       .  S
C259        C260   1.346       .  D
C260        H268   1.084       .  S
C269        C277   1.481       .  S
C269        C270   1.404       .  A
C269        C274   1.405       .  A
C270        C271   1.402       .  A
C270        H279   1.083       .  S
C271        C272   1.406       .  A
C271        H280   1.083       .  S
C272        C275   1.475       .  S
C272        C273   1.400       .  A
C273        C274   1.393       .  A
C273        H281   1.084       .  S
C274        H282   1.083       .  S
C275        H283   1.088       .  S
C275        C276   1.343       .  D
C276        H284   1.086       .  S
C277        H285   1.087       .  S
C277        C278   1.343       .  D
C278        H286   1.087       .  S
C287        N288   1.362       .  A
C287        N292   1.360       .  A
C287        C546   1.480       .  S
N288        C289   1.358       .  A
C289        N290   1.353       .  A
C289        C526   1.477       .  S
N290        C291   1.358       .  A
C291        N292   1.359       .  A
C291        C562   1.475       .  S
O293        C309   1.277       .  A
O293       Zn871   2.038       .  S
C294        C510   1.476       .  S
C294        O310   1.278       .  A
O295        C308   1.277       .  A
O295       Cd302   2.100       .  S
O296        C314   1.273       .  A
O296       Cd305   2.060   1_455  S
O297        C311   1.275       .  A
O298        C309   1.273       .  A
O298       Cd301   2.059       .  S
Zn299       O865   2.038       .  S
Zn299       O310   2.040   1_556  S
Zn299       O312   2.012   1_655  S
Zn299       O304   1.949       .  S
O300        C311   1.275       .  A
O300       Cd877   2.078       .  S
Cd301       O303   2.061       .  S
Cd301       O876   1.994       .  S
Cd302       O306   2.092       .  S
Cd302       O304   2.021   1_455  S
O303        C885   1.274       .  A
O304       Cd873   1.994       .  S
Cd305       O872   2.078       .  S
Cd305       O307   2.059   1_556  S
O306        C313   1.279   1_455  A
C308        C472   1.480       .  S
C308        O312   1.273       .  A
C309        C544   1.475       .  S
C311        C454   1.486       .  S
C313        C492   1.476       .  S
C313        O875   1.274       .  A
C314        C564   1.472       .  S
C314        O315   1.277       .  A
C316        N317   1.360       .  A
C316        N321   1.367       .  A
C316        C456   1.479       .  S
N317        C318   1.356       .  A
C318        N319   1.353       .  A
C318        C436   1.480       .  S
N319        C320   1.360       .  A
C320        N321   1.365       .  A
C320        C474   1.490       .  S
C322        N323   1.362       .  A
C322        N899   1.366       .  A
C322        C418   1.483       .  S
N323        C896   1.353       .  A
C324        N895   1.353       .  A
C324        C508   1.480       .  S
N325        C326   1.356       .  A
C326        C400   1.477       .  S
N327        C894   1.366   1_455  A
O328        C344   1.275       .  A
O328       Zn334   2.036       .  S
C329        C528   1.479       .  S
C329        O345   1.276       .  A
C329        O342   1.275       .  A
O330        C343   1.273       .  A
O330       Cd337   2.068       .  S
O331        C349   1.273       .  A
O331       Cd340   2.074       .  S
O332        C346   1.273       .  A
O332       Cd336   2.068       .  S
O333        C344   1.274       .  A
O333       Cd336   2.073       .  S
Zn334       O345   2.035       .  S
Zn334       O347   2.016       .  S
Zn334       O339   1.951       .  S
O335        C346   1.275       .  A
O335       Cd340   2.060       .  S
Cd336       O338   2.078       .  S
Cd336       O339   2.003       .  S
Cd337       O341   2.078       .  S
Cd337       O350   2.083       .  S
Cd337       O339   2.006       .  S
O338        C348   1.276       .  A
O339       Cd340   1.999       .  S
Cd340       O342   2.065       .  S
O341        C348   1.277       .  A
C343        C366   1.472       .  S
C343        O347   1.276       .  A
C344        C420   1.480       .  S
C346        C382   1.470       .  S
C348        C438   1.479       .  S
C349        C402   1.483       .  S
C349        O350   1.277       .  A
C351        N352   1.359       .  A
C351        N642   1.356   1_565  A
C351        C384   1.470       .  S
N352        C925   1.358   1_565  A
C353        N924   1.358   1_445  A
N354        C355   1.361       .  A
C355        N356   1.356       .  A
C355        C364   1.471       .  S
N356        C637   1.356   1_455  A
C357        C365   1.478       .  S
C357        C358   1.402       .  A
C357        C362   1.406       .  A
C358        C359   1.397       .  A
C358        H367   1.083       .  S
C359        C360   1.406       .  A
C359        H368   1.083       .  S
C360        C363   1.476       .  S
C360        C361   1.401       .  A
C361        C362   1.396       .  A
C361        H369   1.084       .  S
C362        H370   1.083       .  S
C363        H371   1.087       .  S
C363        C364   1.340       .  D
C364        H372   1.087       .  S
C365        H373   1.087       .  S
C365        C366   1.342       .  D
C366        H374   1.086       .  S
C375        C383   1.476       .  S
C375        C376   1.402       .  A
C375        C380   1.405       .  A
C376        C377   1.397       .  A
C376        H385   1.083       .  S
C377        C378   1.405       .  A
C377        H386   1.083       .  S
C378        C381   1.475       .  S
C378        C379   1.401       .  A
C379        C380   1.396       .  A
C379        H387   1.083       .  S
C380        H388   1.083       .  S
C381        H389   1.088       .  S
C381        C382   1.342       .  D
C382        H390   1.087       .  S
C383        H391   1.087       .  S
C383        C384   1.342       .  D
C384        H392   1.086       .  S
C393        C401   1.493       .  S
C393        C394   1.403       .  A
C393        C398   1.412       .  A
C394        C395   1.394       .  A
C394        H403   1.084       .  S
C395        C396   1.406       .  A
C395        H404   1.083       .  S
C396        C399   1.491       .  S
C396        C397   1.404       .  A
C397        C398   1.406       .  A
C397        H405   1.083       .  S
C398        H406   1.080       .  S
C399        H407   1.086       .  S
C399        C400   1.345       .  D
C400        H408   1.087       .  S
C401        H409   1.087       .  S
C401        C402   1.347       .  D
C402        H410   1.084       .  S
C411        C419   1.487       .  S
C411        C412   1.406       .  A
C411        C416   1.405       .  A
C412        C413   1.404       .  A
C412        H421   1.083       .  S
C413        C414   1.406       .  A
C413        H422   1.083       .  S
C414        C417   1.484       .  S
C414        C415   1.404       .  A
C415        C416   1.397       .  A
C415        H423   1.083       .  S
C416        H424   1.082       .  S
C417        H425   1.088       .  S
C417        C418   1.348       .  D
C418        H426   1.086       .  S
C419        H427   1.087       .  S
C419        C420   1.348       .  D
C420        H428   1.086       .  S
C429        C437   1.488       .  S
C429        C430   1.403       .  A
C429        C434   1.407       .  A
C430        C431   1.400       .  A
C430        H439   1.084       .  S
C431        C432   1.410       .  A
C431        H440   1.080       .  S
C432        C435   1.493       .  S
C432        C433   1.404       .  A
C433        C434   1.399       .  A
C433        H441   1.083       .  S
C434        H442   1.082       .  S
C435        H443   1.087       .  S
C435        C436   1.347       .  D
C436        H444   1.083       .  S
C437        H445   1.087       .  S
C437        C438   1.347       .  D
C438        H446   1.085       .  S
C447        C455   1.491       .  S
C447        C448   1.404       .  A
C447        C452   1.406       .  A
C448        C449   1.405       .  A
C448        H457   1.083       .  S
C449        C450   1.411       .  A
C449        H458   1.080       .  S
C450        C453   1.496       .  S
C450        C451   1.405       .  A
C451        C452   1.398       .  A
C451        H459   1.083   1_556  S
C452        H460   1.083   1_556  S
C453        H461   1.087       .  S
C453        C454   1.350       .  D
C454        H462   1.083       .  S
C455        H463   1.086       .  S
C455        C456   1.346   1_556  D
C456        H464   1.087       .  S
C465        C473   1.491       .  S
C465        C466   1.403       .  A
C465        C470   1.409   1_554  A
C466        C467   1.393       .  A
C466        H475   1.084       .  S
C467        C468   1.407   1_554  A
C467        H476   1.081       .  S
C468        C471   1.497       .  S
C468        C469   1.408       .  A
C469        C470   1.409       .  A
C469        H477   1.083       .  S
C470        H478   1.081       .  S
C471        H479   1.086       .  S
C471        C472   1.349       .  D
C472        H480   1.085       .  S
C473        H481   1.087       .  S
C473        C474   1.352       .  D
C474        H482   1.084   1_554  S
C483        C491   1.488       .  S
C483        C484   1.403   1_565  A
C483        C774   1.407   1_455  A
C484        C485   1.401       .  A
C484        H493   1.083       .  S
C485        C772   1.409   1_545  A
C485        H494   1.081       .  S
C486        C489   1.489       .  S
C486        C771   1.409       .  A
C486        C487   1.403       .  A
C487        C488   1.396       .  A
C487        H495   1.083       .  S
C488        C769   1.407       .  A
C488        H496   1.082       .  S
C489        H497   1.087       .  S
C489       C1062   1.347       .  D
C490       C1061   1.347       .  D
C491        H499   1.087   1_565  S
C492       H1072   1.085       .  S
H500       C1064   1.085       .  S
C501        C509   1.490       .  S
C501        C502   1.404       .  A
C501        C792   1.408       .  A
C502        C503   1.401       .  A
C502        H511   1.083       .  S
C503        C790   1.409       .  A
C503        H512   1.080       .  S
C504        C507   1.489   1_655  S
C504        C789   1.409   1_565  A
C504        C505   1.403   1_655  A
C505        C506   1.396       .  A
C505        H513   1.083       .  S
C506        C787   1.408   1_465  A
C506        H514   1.081       .  S
C507        H515   1.087       .  S
C508       H1088   1.083       .  S
C509        H517   1.087       .  S
C509       C1082   1.346       .  D
C510       C1081   1.346       .  D
H516       C1080   1.083       .  S
C519        C527   1.488       .  S
C519        C520   1.403       .  A
C519        C524   1.408       .  A
C520        C521   1.398       .  A
C520        H529   1.083       .  S
C521        C522   1.408       .  A
C521        H530   1.081       .  S
C522        C525   1.489       .  S
C522        C523   1.404       .  A
C523        C524   1.400       .  A
C523        H531   1.083       .  S
C524        H532   1.081       .  S
C525        H533   1.087       .  S
C525        C526   1.346       .  D
C526        H534   1.084       .  S
C527        H535   1.087       .  S
C527        C528   1.348       .  D
C528        H536   1.084       .  S
C537        C545   1.487       .  S
C537        C538   1.402       .  A
C537        C542   1.409       .  A
C538        C539   1.393       .  A
C538        H547   1.084       .  S
C539        C540   1.406       .  A
C539        H548   1.082       .  S
C540        C543   1.488       .  S
C540        C541   1.404       .  A
C541        C542   1.404       .  A
C541        H549   1.083       .  S
C542        H550   1.081       .  S
C543        H551   1.086       .  S
C543        C544   1.346       .  D
C544        H552   1.086       .  S
C545        H553   1.087       .  S
C545        C546   1.346       .  D
C546        H554   1.084       .  S
C555        C563   1.481       .  S
C555        C556   1.404       .  A
C555        C560   1.405       .  A
C556        C557   1.402       .  A
C556        H565   1.083       .  S
C557        C558   1.406       .  A
C557        H566   1.083       .  S
C558        C561   1.475       .  S
C558        C559   1.400       .  A
C559        C560   1.393       .  A
C559        H567   1.084       .  S
C560        H568   1.083       .  S
C561        H569   1.088       .  S
C561        C562   1.343       .  D
C562        H570   1.086       .  S
C563        H571   1.087       .  S
C563        C564   1.343       .  D
C564        H572   1.087       .  S
C573        N574   1.362       .  A
C573        N578   1.360       .  A
C573        C832   1.480       .  S
N574        C575   1.358       .  A
C575        N576   1.353       .  A
C575        C812   1.477       .  S
N576        C577   1.358       .  A
C577        N578   1.359       .  A
C577        C848   1.475       .  S
O579        C595   1.277       .  A
C580        C796   1.476       .  S
C580        O596   1.278   1_565  A
C580        O879   1.273       .  A
O581        C594   1.277       .  A
O581       Cd588   2.100   1_545  S
O582        C600   1.273       .  A
O582       Cd591   2.060       .  S
O583        C597   1.275       .  A
O583       Cd873   2.086       .  S
O584        C595   1.273       .  A
O584       Cd587   2.059   1_545  S
Zn585       O596   2.040   1_556  S
Zn585       O598   2.012       .  S
Zn585       O590   1.949   1_545  S
O586        C597   1.275       .  A
Cd587       O869   2.086       .  S
Cd587       O589   2.061       .  S
Cd588       O592   2.092   1_565  S
Cd588       O887   2.080       .  S
Cd588       O590   2.021       .  S
O590       Cd877   1.994       .  S
Cd591       O593   2.059   1_556  S
Cd591       O876   1.994       .  S
O592        C599   1.279   1_545  A
O593        C866   1.273       .  A
C594        C758   1.480       .  S
C594        O598   1.273       .  A
C595        C830   1.475       .  S
C597        C740   1.486       .  S
C599        C778   1.476       .  S
C600        C850   1.472       .  S
C600        O601   1.277       .  A
O601       Cd874   2.080       .  S
C602        N603   1.360       .  A
C602        N607   1.367       .  A
C602        C742   1.479       .  S
N603        C604   1.356       .  A
C604        N605   1.353       .  A
C604        C722   1.480       .  S
N605        C606   1.360       .  A
C606        N607   1.365       .  A
C606        C760   1.490       .  S
C608        N609   1.362       .  A
C608        C704   1.483       .  S
C610        N897   1.354   1_545  A
C610        C794   1.480       .  S
N611        C896   1.354       .  A
N611        C612   1.356       .  A
C612        N899   1.365       .  A
C612        C686   1.477       .  S
N613        C898   1.365   1_545  A
O614        C630   1.275       .  A
O614       Zn620   2.036       .  S
C615        C814   1.479       .  S
C615        O631   1.276       .  A
C615        O628   1.275       .  A
O616        C629   1.273       .  A
O616       Cd623   2.068       .  S
O617        C635   1.273       .  A
O617       Cd626   2.074       .  S
O618        C632   1.273       .  A
O618       Cd622   2.068       .  S
O619        C630   1.274       .  A
O619       Cd622   2.073       .  S
Zn620       O631   2.035       .  S
Zn620       O633   2.016       .  S
Zn620       O625   1.951       .  S
O621        C632   1.275       .  A
O621       Cd626   2.060       .  S
Cd622       O624   2.078       .  S
Cd622       O625   2.003       .  S
Cd623       O627   2.078       .  S
Cd623       O636   2.083       .  S
Cd623       O625   2.006       .  S
O624        C634   1.276       .  A
O625       Cd626   1.999       .  S
Cd626       O628   2.065       .  S
O627        C634   1.277       .  A
C629        C652   1.472       .  S
C629        O633   1.276       .  A
C630        C706   1.480       .  S
C632        C668   1.470       .  S
C634        C724   1.479       .  S
C635        C688   1.483       .  S
C635        O636   1.277       .  A
C637        N638   1.359       .  A
C637        C670   1.470       .  S
C639        N926   1.357       .  A
C639       C1062   1.479       .  S
N640        C925   1.357       .  A
N640        C641   1.361       .  A
C641        N642   1.356       .  A
C641        C650   1.471       .  S
C643        C651   1.478       .  S
C643        C644   1.402       .  A
C643        C648   1.406       .  A
C644        C645   1.397       .  A
C644        H653   1.083       .  S
C645        C646   1.406       .  A
C645        H654   1.083       .  S
C646        C649   1.476       .  S
C646        C647   1.401       .  A
C647        C648   1.396       .  A
C647        H655   1.084       .  S
C648        H656   1.083       .  S
C649        H657   1.087       .  S
C649        C650   1.340       .  D
C650        H658   1.087       .  S
C651        H659   1.087       .  S
C651        C652   1.342       .  D
C652        H660   1.086       .  S
C661        C669   1.476       .  S
C661        C662   1.402       .  A
C661        C666   1.405       .  A
C662        C663   1.397       .  A
C662        H671   1.083       .  S
C663        C664   1.405       .  A
C663        H672   1.083       .  S
C664        C667   1.475       .  S
C664        C665   1.401       .  A
C665        C666   1.396       .  A
C665        H673   1.083       .  S
C666        H674   1.083       .  S
C667        H675   1.088       .  S
C667        C668   1.342       .  D
C668        H676   1.087       .  S
C669        H677   1.087       .  S
C669        C670   1.342       .  D
C670        H678   1.086       .  S
C679        C687   1.493       .  S
C679        C680   1.403       .  A
C679        C684   1.412       .  A
C680        C681   1.394       .  A
C680        H689   1.084       .  S
C681        C682   1.406       .  A
C681        H690   1.083       .  S
C682        C685   1.491       .  S
C682        C683   1.404       .  A
C683        C684   1.406       .  A
C683        H691   1.083       .  S
C684        H692   1.080       .  S
C685        H693   1.086       .  S
C685        C686   1.345       .  D
C686        H694   1.087       .  S
C687        H695   1.087       .  S
C687        C688   1.347       .  D
C688        H696   1.084       .  S
C697        C705   1.487       .  S
C697        C698   1.406       .  A
C697        C702   1.405       .  A
C698        C699   1.404       .  A
C698        H707   1.083       .  S
C699        C700   1.406       .  A
C699        H708   1.083       .  S
C700        C703   1.484       .  S
C700        C701   1.404       .  A
C701        C702   1.397       .  A
C701        H709   1.083       .  S
C702        H710   1.082       .  S
C703        H711   1.088       .  S
C703        C704   1.348       .  D
C704        H712   1.086       .  S
C705        H713   1.087       .  S
C705        C706   1.348       .  D
C706        H714   1.086       .  S
C715        C723   1.488       .  S
C715        C716   1.403       .  A
C715        C720   1.407       .  A
C716        C717   1.400       .  A
C716        H725   1.084       .  S
C717        C718   1.410       .  A
C717        H726   1.080       .  S
C718        C721   1.493       .  S
C718        C719   1.404       .  A
C719        C720   1.399       .  A
C719        H727   1.083       .  S
C720        H728   1.082       .  S
C721        H729   1.087       .  S
C721        C722   1.347       .  D
C722        H730   1.083       .  S
C723        H731   1.087       .  S
C723        C724   1.347       .  D
C724        H732   1.085       .  S
C733        C741   1.491       .  S
C733        C734   1.404       .  A
C733        C738   1.406       .  A
C734        C735   1.405       .  A
C734        H743   1.083       .  S
C735        C736   1.411       .  A
C735        H744   1.080       .  S
C736        C739   1.496       .  S
C736        C737   1.405       .  A
C737        C738   1.398       .  A
C737        H745   1.083   1_556  S
C738        H746   1.083   1_556  S
C739        H747   1.087       .  S
C739        C740   1.350       .  D
C740        H748   1.083       .  S
C741        H749   1.086       .  S
C741        C742   1.346   1_556  D
C742        H750   1.087       .  S
C751        C759   1.491       .  S
C751        C752   1.403       .  A
C751        C756   1.409   1_554  A
C752        C753   1.393       .  A
C752        H761   1.084       .  S
C753        C754   1.407   1_554  A
C753        H762   1.081       .  S
C754        C757   1.497       .  S
C754        C755   1.408       .  A
C755        C756   1.409       .  A
C755        H763   1.083       .  S
C756        H764   1.081       .  S
C757        H765   1.086       .  S
C757        C758   1.349       .  D
C758        H766   1.085       .  S
C759        H767   1.087       .  S
C759        C760   1.352       .  D
C760        H768   1.084   1_554  S
C769        C777   1.488       .  S
C769        C770   1.403       .  A
C770        C771   1.401       .  A
C770        H779   1.083       .  S
C771        H780   1.081       .  S
C772        C775   1.489       .  S
C772        C773   1.403   1_455  A
C773        C774   1.396       .  A
C773        H781   1.083       .  S
C774        H782   1.082       .  S
C775        H783   1.087   1_455  S
C776        C925   1.479       .  S
C776       H1070   1.084       .  S
C777        H785   1.087       .  S
C777       C1064   1.345       .  D
C778       C1063   1.345       .  D
H784       C1062   1.084       .  S
C787        C795   1.490       .  S
C787        C788   1.404       .  A
C788        C789   1.401       .  A
C788        H797   1.083       .  S
C789        H798   1.080       .  S
C790        C793   1.489       .  S
C790        C791   1.403       .  A
C791        C792   1.396       .  A
C791        H799   1.083       .  S
C792        H800   1.081       .  S
C793        H801   1.087       .  S
C793       C1080   1.348       .  D
C794       C1079   1.348   1_545  D
C795        H803   1.087       .  S
C796       H1090   1.084       .  S
H804       C1082   1.084       .  S
C805        C813   1.488       .  S
C805        C806   1.403       .  A
C805        C810   1.408       .  A
C806        C807   1.398       .  A
C806        H815   1.083       .  S
C807        C808   1.408       .  A
C807        H816   1.081       .  S
C808        C811   1.489       .  S
C808        C809   1.404       .  A
C809        C810   1.400       .  A
C809        H817   1.083       .  S
C810        H818   1.081       .  S
C811        H819   1.087       .  S
C811        C812   1.346       .  D
C812        H820   1.084       .  S
C813        H821   1.087       .  S
C813        C814   1.348       .  D
C814        H822   1.084       .  S
C823        C831   1.487       .  S
C823        C824   1.402       .  A
C823        C828   1.409       .  A
C824        C825   1.393       .  A
C824        H833   1.084       .  S
C825        C826   1.406       .  A
C825        H834   1.082       .  S
C826        C829   1.488       .  S
C826        C827   1.404       .  A
C827        C828   1.404       .  A
C827        H835   1.083       .  S
C828        H836   1.081       .  S
C829        H837   1.086       .  S
C829        C830   1.346       .  D
C830        H838   1.086       .  S
C831        H839   1.087       .  S
C831        C832   1.346       .  D
C832        H840   1.084       .  S
C841        C849   1.481       .  S
C841        C842   1.404       .  A
C841        C846   1.405       .  A
C842        C843   1.402       .  A
C842        H851   1.083       .  S
C843        C844   1.406       .  A
C843        H852   1.083       .  S
C844        C847   1.475       .  S
C844        C845   1.400       .  A
C845        C846   1.393       .  A
C845        H853   1.084       .  S
C846        H854   1.083       .  S
C847        H855   1.088       .  S
C847        C848   1.343       .  D
C848        H856   1.086       .  S
C849        H857   1.087       .  S
C849        C850   1.343       .  D
C850        H858   1.087       .  S
C859        N860   1.362       .  A
C859        N864   1.360       .  A
C859       C1118   1.480       .  S
N860        C861   1.358       .  A
C861        N862   1.353       .  A
C861       C1098   1.477       .  S
N862        C863   1.358       .  A
C863        N864   1.359       .  A
C863       C1134   1.475       .  S
O865        C881   1.277       .  A
C866       C1082   1.476       .  S
C866        O882   1.278       .  A
O867        C880   1.277       .  A
O867       Cd874   2.100       .  S
O868        C886   1.273       .  A
O868       Cd877   2.060       .  S
O869        C883   1.275       .  A
O870        C881   1.273       .  A
O870       Cd873   2.059       .  S
Zn871       O882   2.040   1_556  S
Zn871       O884   2.012       .  S
Zn871       O876   1.949       .  S
O872        C883   1.275       .  A
Cd873       O875   2.061       .  S
Cd874       O878   2.092       .  S
Cd874       O876   2.021       .  S
Cd877       O879   2.059   1_556  S
O878        C885   1.279       .  A
C880       C1044   1.480       .  S
C880        O884   1.273       .  A
C881       C1116   1.475       .  S
C883       C1026   1.486       .  S
C885       C1064   1.476       .  S
C886       C1136   1.472       .  S
C886        O887   1.277       .  A
C888        N889   1.360       .  A
C888        N893   1.367       .  A
C888       C1028   1.479       .  S
N889        C890   1.356       .  A
C890        N891   1.353       .  A
C890       C1008   1.480       .  S
N891        C892   1.360       .  A
C892        N893   1.365       .  A
C892       C1046   1.490       .  S
C894        N895   1.362       .  A
C894        C990   1.483       .  S
C896       C1080   1.480       .  S
N897        C898   1.356       .  A
C898        C972   1.477       .  S
O900        C916   1.275       .  A
O900       Zn906   2.036       .  S
C901       C1100   1.479       .  S
C901        O917   1.276       .  A
C901        O914   1.275       .  A
O902        C915   1.273       .  A
O902       Cd909   2.068       .  S
O903        C921   1.273       .  A
O903       Cd912   2.074       .  S
O904        C918   1.273       .  A
O904       Cd908   2.068       .  S
O905        C916   1.274       .  A
O905       Cd908   2.073       .  S
Zn906       O917   2.035       .  S
Zn906       O919   2.016       .  S
Zn906       O911   1.951       .  S
O907        C918   1.275       .  A
O907       Cd912   2.060       .  S
Cd908       O910   2.078       .  S
Cd908       O911   2.003       .  S
Cd909       O913   2.078       .  S
Cd909       O922   2.083       .  S
Cd909       O911   2.006       .  S
O910        C920   1.276       .  A
O911       Cd912   1.999       .  S
Cd912       O914   2.065       .  S
O913        C920   1.277       .  A
C915        C938   1.472       .  S
C915        O919   1.276       .  A
C916        C992   1.480       .  S
C918        C954   1.470       .  S
C920       C1010   1.479       .  S
C921        C974   1.483       .  S
C921        O922   1.277       .  A
C923        N924   1.359       .  A
C923        C956   1.470       .  S
N926        C927   1.361       .  A
C927        N928   1.356       .  A
C927        C936   1.471       .  S
C929        C937   1.478       .  S
C929        C930   1.402       .  A
C929        C934   1.406       .  A
C930        C931   1.397       .  A
C930        H939   1.083       .  S
C931        C932   1.406       .  A
C931        H940   1.083       .  S
C932        C935   1.476       .  S
C932        C933   1.401       .  A
C933        C934   1.396       .  A
C933        H941   1.084       .  S
C934        H942   1.083       .  S
C935        H943   1.087       .  S
C935        C936   1.340       .  D
C936        H944   1.087       .  S
C937        H945   1.087       .  S
C937        C938   1.342       .  D
C938        H946   1.086       .  S
C947        C955   1.476       .  S
C947        C948   1.402       .  A
C947        C952   1.405       .  A
C948        C949   1.397       .  A
C948        H957   1.083       .  S
C949        C950   1.405       .  A
C949        H958   1.083       .  S
C950        C953   1.475       .  S
C950        C951   1.401       .  A
C951        C952   1.396       .  A
C951        H959   1.083       .  S
C952        H960   1.083       .  S
C953        H961   1.088       .  S
C953        C954   1.342       .  D
C954        H962   1.087       .  S
C955        H963   1.087       .  S
C955        C956   1.342       .  D
C956        H964   1.086       .  S
C965        C973   1.493       .  S
C965        C966   1.403       .  A
C965        C970   1.412       .  A
C966        C967   1.394       .  A
C966        H975   1.084       .  S
C967        C968   1.406       .  A
C967        H976   1.083       .  S
C968        C971   1.491       .  S
C968        C969   1.404       .  A
C969        C970   1.406       .  A
C969        H977   1.083       .  S
C970        H978   1.080       .  S
C971        H979   1.086       .  S
C971        C972   1.345       .  D
C972        H980   1.087       .  S
C973        H981   1.087       .  S
C973        C974   1.347       .  D
C974        H982   1.084       .  S
C983        C991   1.487       .  S
C983        C984   1.406       .  A
C983        C988   1.405       .  A
C984        C985   1.404       .  A
C984        H993   1.083       .  S
C985        C986   1.406       .  A
C985        H994   1.083       .  S
C986        C989   1.484       .  S
C986        C987   1.404       .  A
C987        C988   1.397       .  A
C987        H995   1.083       .  S
C988        H996   1.082       .  S
C989        H997   1.088       .  S
C989        C990   1.348       .  D
C990        H998   1.086       .  S
C991        H999   1.087       .  S
C991        C992   1.348       .  D
C992       H1000   1.086       .  S
C1001      C1009   1.488       .  S
C1001      C1002   1.403       .  A
C1001      C1006   1.407       .  A
C1002      C1003   1.400       .  A
C1002      H1011   1.084       .  S
C1003      C1004   1.410       .  A
C1003      H1012   1.080       .  S
C1004      C1007   1.493       .  S
C1004      C1005   1.404       .  A
C1005      C1006   1.399       .  A
C1005      H1013   1.083       .  S
C1006      H1014   1.082       .  S
C1007      H1015   1.087       .  S
C1007      C1008   1.347       .  D
C1008      H1016   1.083       .  S
C1009      H1017   1.087       .  S
C1009      C1010   1.347       .  D
C1010      H1018   1.085       .  S
C1019      C1027   1.491       .  S
C1019      C1020   1.404       .  A
C1019      C1024   1.406       .  A
C1020      C1021   1.405       .  A
C1020      H1029   1.083       .  S
C1021      C1022   1.411       .  A
C1021      H1030   1.080       .  S
C1022      C1025   1.496       .  S
C1022      C1023   1.405       .  A
C1023      C1024   1.398       .  A
C1023      H1031   1.083   1_556  S
C1024      H1032   1.083   1_556  S
C1025      H1033   1.087       .  S
C1025      C1026   1.350       .  D
C1026      H1034   1.083       .  S
C1027      H1035   1.086       .  S
C1027      C1028   1.346   1_556  D
C1028      H1036   1.087       .  S
C1037      C1045   1.491       .  S
C1037      C1038   1.403       .  A
C1037      C1042   1.409   1_554  A
C1038      C1039   1.393       .  A
C1038      H1047   1.084       .  S
C1039      C1040   1.407   1_554  A
C1039      H1048   1.081       .  S
C1040      C1043   1.497       .  S
C1040      C1041   1.408       .  A
C1041      C1042   1.409       .  A
C1041      H1049   1.083       .  S
C1042      H1050   1.081       .  S
C1043      H1051   1.086       .  S
C1043      C1044   1.349       .  D
C1044      H1052   1.085       .  S
C1045      H1053   1.087       .  S
C1045      C1046   1.352       .  D
C1046      H1054   1.084   1_554  S
C1055      C1063   1.488       .  S
C1055      C1056   1.403   1_565  A
C1056      C1057   1.401       .  A
C1056      H1065   1.083       .  S
C1057      H1066   1.081       .  S
C1058      C1061   1.489       .  S
C1058      C1059   1.403   1_455  A
C1059      C1060   1.396       .  A
C1059      H1067   1.083       .  S
C1060      H1068   1.082       .  S
C1061      H1069   1.087   1_455  S
C1063      H1071   1.087   1_565  S
C1073      C1081   1.490       .  S
C1073      C1074   1.404       .  A
C1074      C1075   1.401       .  A
C1074      H1083   1.083       .  S
C1075      H1084   1.080       .  S
C1076      C1079   1.489       .  S
C1076      C1077   1.403       .  A
C1077      C1078   1.396       .  A
C1077      H1085   1.083       .  S
C1078      H1086   1.081       .  S
C1079      H1087   1.087       .  S
C1081      H1089   1.087       .  S
C1091      C1099   1.488       .  S
C1091      C1092   1.403       .  A
C1091      C1096   1.408       .  A
C1092      C1093   1.398       .  A
C1092      H1101   1.083       .  S
C1093      C1094   1.408       .  A
C1093      H1102   1.081       .  S
C1094      C1097   1.489       .  S
C1094      C1095   1.404       .  A
C1095      C1096   1.400       .  A
C1095      H1103   1.083       .  S
C1096      H1104   1.081       .  S
C1097      H1105   1.087       .  S
C1097      C1098   1.346       .  D
C1098      H1106   1.084       .  S
C1099      H1107   1.087       .  S
C1099      C1100   1.348       .  D
C1100      H1108   1.084       .  S
C1109      C1117   1.487       .  S
C1109      C1110   1.402       .  A
C1109      C1114   1.409       .  A
C1110      C1111   1.393       .  A
C1110      H1119   1.084       .  S
C1111      C1112   1.406       .  A
C1111      H1120   1.082       .  S
C1112      C1115   1.488       .  S
C1112      C1113   1.404       .  A
C1113      C1114   1.404       .  A
C1113      H1121   1.083       .  S
C1114      H1122   1.081       .  S
C1115      H1123   1.086       .  S
C1115      C1116   1.346       .  D
C1116      H1124   1.086       .  S
C1117      H1125   1.087       .  S
C1117      C1118   1.346       .  D
C1118      H1126   1.084       .  S
C1127      C1135   1.481       .  S
C1127      C1128   1.404       .  A
C1127      C1132   1.405       .  A
C1128      C1129   1.402       .  A
C1128      H1137   1.083       .  S
C1129      C1130   1.406       .  A
C1129      H1138   1.083       .  S
C1130      C1133   1.475       .  S
C1130      C1131   1.400       .  A
C1131      C1132   1.393       .  A
C1131      H1139   1.084       .  S
C1132      H1140   1.083       .  S
C1133      H1141   1.088       .  S
C1133      C1134   1.343       .  D
C1134      H1142   1.086       .  S
C1135      H1143   1.087       .  S
C1135      C1136   1.343       .  D
C1136      H1144   1.087       .  S
