geometry optimzed in LAMMPS
_audit_creation_date              2020-11-30 
_audit_creation_method            'lammps2cif' 
_symmetry_space_group_name_H-M    'P1' 
_symmetry_Int_Tables_number       1 
_symmetry_cell_setting            triclinic 
loop_ 
_symmetry_equiv_pos_as_xyz 
  x,y,z 
_cell_length_a                    43.9102307190013 
_cell_length_b                    43.58652211105215 
_cell_length_c                    35.30382636657453 
_cell_angle_alpha                 90.353213813917 
_cell_angle_beta                  89.55886385742282 
_cell_angle_gamma                 120.96267222369293 
loop_ 
_atom_site_label 
_atom_site_type_symbol 
_atom_site_fract_x 
_atom_site_fract_y 
_atom_site_fract_z 
_atom_site_charge 
C1          C  0.47822382  0.01629137  0.24847419     0.03400
C2          C  0.46310655  0.47896433  0.99748890    -0.12750
C3          C  0.48442491  0.46368651  0.99992378     0.00900
C4          C  0.02140254  0.48629164  0.00232461    -0.11270
C5          C  0.03717614  0.02365369  0.25216407     0.03390
C6          C  0.01535594  0.03845360  0.25072520    -0.10690
H7          H  0.43466003  0.46178187  0.99422453     0.08990
H8          H  0.03804092  0.47476407  0.00477641     0.06520
H9          H  0.02731192  0.06723029  0.25120810     0.06360
C10         C  0.42440666  0.31020051  0.99995022     0.03400
C11         C  0.41663013  0.29124429  0.21555569    -0.12740
C12         C  0.40156868  0.25404892  0.21549391     0.00900
C13         C  0.39479219  0.23577685  0.99989502    -0.11270
C14         C  0.40088969  0.25410961  0.03432836     0.03390
C15         C  0.41560426  0.29128031  0.03432772    -0.10690
H16         H  0.42096435  0.30520514  0.18892014     0.08990
H17         H  0.38154787  0.20679331  0.99985446     0.06520
H18         H  0.41977384  0.30533695  0.06099486     0.06360
C19         C  0.38672860  0.07573875  0.24874357     0.03400
C20         C  0.37669293  0.08436713  0.21453709    -0.12750
C21         C  0.35486747  0.09908304  0.21484896     0.00900
C22         C  0.34305478  0.10526543  0.24940702    -0.11270
C23         C  0.35444022  0.09861309  0.03366626     0.03390
C24         C  0.37606875  0.08365831  0.03331434    -0.10690
H25         H  0.38614402  0.08004491  0.18774132     0.08990
H26         H  0.32775507  0.11842663  0.24966224     0.06520
H27         H  0.38566573  0.07946093  0.05984411     0.06360
Fe28       Fe  0.32298899  0.20402583  0.12560436     1.65780
Fe29       Fe  0.38435218  0.17750313  0.12436494     1.73250
Fe30       Fe  0.29515182  0.11450684  0.12507810     1.54420
O31         O  0.26711865  0.12220731  0.16727788    -0.81400
O32         O  0.37598919  0.14143216  0.08200907    -0.79710
O33         O  0.28615428  0.18052336  0.16884024    -0.83910
O34         O  0.28545026  0.18028201  0.08332051    -0.78760
O35         O  0.31812111  0.10101495  0.16777008    -0.80540
O36         O  0.39845873  0.21502195  0.08179462    -0.83280
C37         C  0.26707930  0.14890465  0.06991071     0.97480
C38         C  0.26730465  0.14901575  0.18159960     1.04920
O39         O  0.33416206  0.16533864  0.12499612    -1.12270
O40         O  0.39872468  0.21474042  0.16752276    -0.74700
O41         O  0.35940969  0.23264189  0.16719029    -0.78180
O42         O  0.26742478  0.12216298  0.08320335    -0.78870
C43         C  0.38626949  0.23316593  0.18081303     0.96390
O44         O  0.35878320  0.23246517  0.08321838    -0.76830
O45         O  0.37621446  0.14118065  0.16600673    -0.82020
C46         C  0.34920439  0.11381469  0.06853239     0.99010
C47         C  0.34940060  0.11405539  0.18029423     1.04930
O48         O  0.31811103  0.10050938  0.08209320    -0.77670
C49         C  0.38573971  0.23323143  0.06903555     1.03230
C50         C  0.19071597  0.11238558  0.25108924     0.03400
C51         C  0.20953562  0.12259155  0.03543621    -0.12750
C52         C  0.24670631  0.14346424  0.03529243     0.00900
C53         C  0.26514868  0.15447050  0.25084840    -0.11270
C54         C  0.24685692  0.14340466  0.21651837     0.03390
C55         C  0.20970755  0.12258367  0.21661863    -0.10690
H56         H  0.19540806  0.11329992  0.06214539     0.08990
H57         H  0.29397253  0.16920510  0.25074723     0.06520
H58         H  0.19572502  0.11407683  0.18989321     0.06360
C59         C  0.09688811  0.03804183  0.22869319    -0.21030
C60         C  0.07650327  0.04684642  0.25220780    -0.09080
C61         C  0.09405045  0.07737168  0.02553939     0.29780
C62         C  0.13114920  0.09855152  0.02500125    -0.21030
C63         C  0.15142018  0.08974771  0.25131585    -0.09090
C64         C  0.13388904  0.05905406  0.22832192     0.29790
F65         F  0.15250774  0.04871017  0.20627553    -0.19610
H66         H  0.08409180  0.01476510  0.21037996     0.18150
H67         H  0.14411159  0.12199575  0.04306845     0.18160
F68         F  0.07552174  0.08621652  0.04963201    -0.19600
C69         C  0.42359852  0.36462924  0.02112723    -0.21030
C70         C  0.43967178  0.34941644  0.99982448    -0.09080
C71         C  0.47025641  0.37186031  0.22839605     0.29780
C72         C  0.98434775  0.40881189  0.22826888    -0.21030
C73         C  0.46837209  0.42419174  0.99960654    -0.09090
C74         C  0.43770574  0.40161918  0.02108863     0.29790
F75         F  0.42192292  0.41527962  0.04296990    -0.19610
H76         H  0.39995237  0.34777165  0.03775730     0.18150
H77         H  0.00781836  0.42545327  0.21131591     0.18160
F78         F  0.98704781  0.35814255  0.20834004    -0.19600
C79         C  0.42368090  0.51604354  0.01999111    -0.21030
C80         C  0.45495105  0.03179047  0.24801933    -0.09080
C81         C  0.46337712  0.06200764  0.22593002     0.29780
C82         C  0.44108522  0.07611729  0.22625839    -0.21030
C83         C  0.41000884  0.06042151  0.24842688    -0.09090
C84         C  0.40136670  0.03006975  0.02015475     0.29790
F85         F  0.37092392  0.51347827  0.04089830    -0.19610
H86         H  0.41658149  0.49289327  0.03738804     0.18150
H87         H  0.44822285  0.09952577  0.20928297     0.18160
F88         F  0.49259092  0.07740887  0.20324935    -0.19600
C89         C  0.47822382  0.01629137  0.49847418     0.03400
C90         C  0.46310655  0.47896434  0.24748888    -0.12750
C91         C  0.48442491  0.46368651  0.24992376     0.00900
C92         C  0.02140254  0.48629163  0.25232460    -0.11270
C93         C  0.03717614  0.02365370  0.50216407     0.03390
C94         C  0.01535594  0.03845361  0.50072520    -0.10690
H95         H  0.43466003  0.46178187  0.24422451     0.08990
H96         H  0.03804092  0.47476407  0.25477640     0.06520
H97         H  0.02731192  0.06723029  0.50120809     0.06360
C98         C  0.42440666  0.31020051  0.24995021     0.03400
C99         C  0.41663013  0.29124430  0.46555569    -0.12740
C100        C  0.40156868  0.25404893  0.46549391     0.00900
C101        C  0.39479219  0.23577685  0.24989502    -0.11270
C102        C  0.40088969  0.25410961  0.28432836     0.03390
C103        C  0.41560426  0.29128031  0.28432771    -0.10690
H104        H  0.42096435  0.30520515  0.43892015     0.08990
H105        H  0.38154787  0.20679331  0.24985447     0.06520
H106        H  0.41977384  0.30533696  0.31099485     0.06360
C107        C  0.38672860  0.07573876  0.49874356     0.03400
C108        C  0.37669293  0.08436713  0.46453708    -0.12750
C109        C  0.35486747  0.09908304  0.46484896     0.00900
C110        C  0.34305478  0.10526543  0.49940702    -0.11270
C111        C  0.35444022  0.09861309  0.28366626     0.03390
C112        C  0.37606875  0.08365832  0.28331435    -0.10690
H113        H  0.38614401  0.08004492  0.43774132     0.08990
H114        H  0.32775507  0.11842663  0.49966224     0.06520
H115        H  0.38566573  0.07946094  0.30984411     0.06360
Fe116      Fe  0.32298899  0.20402584  0.37560436     1.65780
Fe117      Fe  0.38435218  0.17750314  0.37436494     1.73250
Fe118      Fe  0.29515183  0.11450685  0.37507810     1.54420
O119        O  0.26711866  0.12220732  0.41727788    -0.81400
O120        O  0.37598919  0.14143216  0.33200907    -0.79710
O121        O  0.28615428  0.18052337  0.41884024    -0.83910
O122        O  0.28545026  0.18028201  0.33332051    -0.78760
O123        O  0.31812111  0.10101496  0.41777008    -0.80540
O124        O  0.39845873  0.21502195  0.33179462    -0.83280
C125        C  0.26707930  0.14890465  0.31991071     0.97480
C126        C  0.26730465  0.14901576  0.43159960     1.04920
O127        O  0.33416206  0.16533864  0.37499612    -1.12270
O128        O  0.39872468  0.21474043  0.41752276    -0.74700
O129        O  0.35940969  0.23264189  0.41719029    -0.78180
O130        O  0.26742478  0.12216299  0.33320335    -0.78870
C131        C  0.38626949  0.23316594  0.43081303     0.96390
O132        O  0.35878321  0.23246518  0.33321838    -0.76830
O133        O  0.37621446  0.14118066  0.41600673    -0.82020
C134        C  0.34920439  0.11381469  0.31853239     0.99010
C135        C  0.34940060  0.11405539  0.43029423     1.04930
O136        O  0.31811103  0.10050939  0.33209320    -0.77670
C137        C  0.38573972  0.23323144  0.31903555     1.03230
C138        C  0.19071597  0.11238559  0.50108924     0.03400
C139        C  0.20953562  0.12259155  0.28543621    -0.12750
C140        C  0.24670631  0.14346425  0.28529243     0.00900
C141        C  0.26514868  0.15447051  0.50084840    -0.11270
C142        C  0.24685692  0.14340467  0.46651836     0.03390
C143        C  0.20970755  0.12258368  0.46661863    -0.10690
H144        H  0.19540806  0.11329993  0.31214539     0.08990
H145        H  0.29397253  0.16920510  0.50074723     0.06520
H146        H  0.19572502  0.11407684  0.43989321     0.06360
C147        C  0.09688811  0.03804184  0.47869319    -0.21030
C148        C  0.07650327  0.04684643  0.50220780    -0.09080
C149        C  0.09405045  0.07737167  0.27553939     0.29780
C150        C  0.13114920  0.09855151  0.27500125    -0.21030
C151        C  0.15142018  0.08974772  0.50131585    -0.09090
C152        C  0.13388904  0.05905407  0.47832192     0.29790
F153        F  0.15250775  0.04871018  0.45627553    -0.19610
H154        H  0.08409180  0.01476510  0.46037996     0.18150
H155        H  0.14411159  0.12199575  0.29306846     0.18160
F156        F  0.07552174  0.08621651  0.29963201    -0.19600
C157        C  0.42359852  0.36462924  0.27112722    -0.21030
C158        C  0.43967177  0.34941644  0.24982446    -0.09080
C159        C  0.47025641  0.37186032  0.47839606     0.29780
C160        C  0.98434775  0.40881190  0.47826888    -0.21030
C161        C  0.46837209  0.42419174  0.24960652    -0.09090
C162        C  0.43770574  0.40161919  0.27108862     0.29790
F163        F  0.42192294  0.41527962  0.29296990    -0.19610
H164        H  0.39995238  0.34777165  0.28775730     0.18150
H165        H  0.00781836  0.42545327  0.46131591     0.18160
F166        F  0.98704781  0.35814255  0.45834004    -0.19600
C167        C  0.42368089  0.51604352  0.26999109    -0.21030
C168        C  0.45495105  0.03179047  0.49801933    -0.09080
C169        C  0.46337711  0.06200763  0.47592999     0.29780
C170        C  0.44108521  0.07611728  0.47625837    -0.21030
C171        C  0.41000884  0.06042151  0.49842687    -0.09090
C172        C  0.40136670  0.03006975  0.27015475     0.29790
F173        F  0.37092389  0.51347824  0.29089825    -0.19610
H174        H  0.41658147  0.49289324  0.28738801     0.18150
H175        H  0.44822283  0.09952575  0.45928293     0.18160
F176        F  0.49259090  0.07740885  0.45324931    -0.19600
C177        C  0.47822382  0.01629138  0.74847418     0.03400
C178        C  0.46310655  0.47896434  0.49748890    -0.12750
C179        C  0.48442491  0.46368652  0.49992377     0.00900
C180        C  0.02140254  0.48629164  0.50232459    -0.11270
C181        C  0.03717614  0.02365370  0.75216407     0.03390
C182        C  0.01535594  0.03845361  0.75072520    -0.10690
H183        H  0.43466003  0.46178188  0.49422453     0.08990
H184        H  0.03804092  0.47476407  0.50477639     0.06520
H185        H  0.02731192  0.06723029  0.75120810     0.06360
C186        C  0.42440666  0.31020052  0.49995021     0.03400
C187        C  0.41663013  0.29124430  0.71555570    -0.12740
C188        C  0.40156868  0.25404893  0.71549391     0.00900
C189        C  0.39479219  0.23577685  0.49989502    -0.11270
C190        C  0.40088969  0.25410962  0.53432836     0.03390
C191        C  0.41560426  0.29128032  0.53432772    -0.10690
H192        H  0.42096435  0.30520515  0.68892015     0.08990
H193        H  0.38154787  0.20679332  0.49985446     0.06520
H194        H  0.41977384  0.30533696  0.56099485     0.06360
C195        C  0.38672860  0.07573876  0.74874356     0.03400
C196        C  0.37669293  0.08436713  0.71453708    -0.12750
C197        C  0.35486747  0.09908304  0.71484896     0.00900
C198        C  0.34305478  0.10526543  0.74940701    -0.11270
C199        C  0.35444022  0.09861310  0.53366626     0.03390
C200        C  0.37606876  0.08365832  0.53331435    -0.10690
H201        H  0.38614402  0.08004492  0.68774131     0.08990
H202        H  0.32775507  0.11842663  0.74966224     0.06520
H203        H  0.38566574  0.07946095  0.55984411     0.06360
Fe204      Fe  0.32298899  0.20402584  0.62560436     1.65780
Fe205      Fe  0.38435218  0.17750314  0.62436494     1.73250
Fe206      Fe  0.29515183  0.11450686  0.62507810     1.54420
O207        O  0.26711865  0.12220732  0.66727788    -0.81400
O208        O  0.37598919  0.14143217  0.58200907    -0.79710
O209        O  0.28615428  0.18052337  0.66884024    -0.83910
O210        O  0.28545026  0.18028202  0.58332051    -0.78760
O211        O  0.31812111  0.10101496  0.66777008    -0.80540
O212        O  0.39845873  0.21502196  0.58179462    -0.83280
C213        C  0.26707930  0.14890466  0.56991071     0.97480
C214        C  0.26730465  0.14901576  0.68159960     1.04920
O215        O  0.33416206  0.16533865  0.62499612    -1.12270
O216        O  0.39872468  0.21474043  0.66752276    -0.74700
O217        O  0.35940969  0.23264190  0.66719029    -0.78180
O218        O  0.26742478  0.12216300  0.58320335    -0.78870
C219        C  0.38626949  0.23316594  0.68081303     0.96390
O220        O  0.35878321  0.23246518  0.58321838    -0.76830
O221        O  0.37621446  0.14118066  0.66600673    -0.82020
C222        C  0.34920439  0.11381470  0.56853239     0.99010
C223        C  0.34940060  0.11405540  0.68029423     1.04930
O224        O  0.31811103  0.10050939  0.58209320    -0.77670
C225        C  0.38573971  0.23323144  0.56903555     1.03230
C226        C  0.19071597  0.11238558  0.75108924     0.03400
C227        C  0.20953563  0.12259156  0.53543621    -0.12750
C228        C  0.24670631  0.14346425  0.53529243     0.00900
C229        C  0.26514868  0.15447051  0.75084840    -0.11270
C230        C  0.24685692  0.14340467  0.71651837     0.03390
C231        C  0.20970755  0.12258368  0.71661863    -0.10690
H232        H  0.19540806  0.11329993  0.56214539     0.08990
H233        H  0.29397253  0.16920510  0.75074723     0.06520
H234        H  0.19572502  0.11407684  0.68989321     0.06360
C235        C  0.09688811  0.03804183  0.72869320    -0.21030
C236        C  0.07650327  0.04684643  0.75220781    -0.09080
C237        C  0.09405045  0.07737168  0.52553939     0.29780
C238        C  0.13114920  0.09855152  0.52500125    -0.21030
C239        C  0.15142018  0.08974772  0.75131586    -0.09090
C240        C  0.13388904  0.05905406  0.72832193     0.29790
F241        F  0.15250775  0.04871017  0.70627554    -0.19610
H242        H  0.08409180  0.01476510  0.71037997     0.18150
H243        H  0.14411159  0.12199575  0.54306845     0.18160
F244        F  0.07552174  0.08621652  0.54963201    -0.19600
C245        C  0.42359852  0.36462925  0.52112723    -0.21030
C246        C  0.43967178  0.34941645  0.49982447    -0.09080
C247        C  0.47025642  0.37186032  0.72839607     0.29780
C248        C  0.98434776  0.40881190  0.72826890    -0.21030
C249        C  0.46837209  0.42419175  0.49960653    -0.09090
C250        C  0.43770575  0.40161919  0.52108863     0.29790
F251        F  0.42192294  0.41527963  0.54296992    -0.19610
H252        H  0.39995238  0.34777166  0.53775731     0.18150
H253        H  0.00781838  0.42545327  0.71131595     0.18160
F254        F  0.98704782  0.35814256  0.70834007    -0.19600
C255        C  0.42368091  0.51604354  0.51999112    -0.21030
C256        C  0.45495105  0.03179047  0.74801932    -0.09080
C257        C  0.46337712  0.06200764  0.72593000     0.29780
C258        C  0.44108522  0.07611729  0.72625838    -0.21030
C259        C  0.41000884  0.06042151  0.74842687    -0.09090
C260        C  0.40136671  0.03006977  0.52015477     0.29790
F261        F  0.37092392  0.51347827  0.54089830    -0.19610
H262        H  0.41658149  0.49289327  0.53738805     0.18150
H263        H  0.44822285  0.09952577  0.70928295     0.18160
F264        F  0.49259092  0.07740887  0.70324933    -0.19600
C265        C  0.47822382  0.01629137  0.99847418     0.03400
C266        C  0.46310655  0.47896434  0.74748888    -0.12750
C267        C  0.48442491  0.46368652  0.74992377     0.00900
C268        C  0.02140254  0.48629164  0.75232461    -0.11270
C269        C  0.03717614  0.02365369  0.00216407     0.03390
C270        C  0.01535594  0.03845360  0.00072520    -0.10690
H271        H  0.43466004  0.46178188  0.74422450     0.08990
H272        H  0.03804092  0.47476407  0.75477641     0.06520
H273        H  0.02731192  0.06723029  0.00120809     0.06360
C274        C  0.42440666  0.31020052  0.74995022     0.03400
C275        C  0.41663013  0.29124429  0.96555570    -0.12740
C276        C  0.40156868  0.25404892  0.96549391     0.00900
C277        C  0.39479219  0.23577685  0.74989502    -0.11270
C278        C  0.40088969  0.25410962  0.78432836     0.03390
C279        C  0.41560426  0.29128032  0.78432772    -0.10690
H280        H  0.42096435  0.30520514  0.93892015     0.08990
H281        H  0.38154787  0.20679332  0.74985447     0.06520
H282        H  0.41977384  0.30533696  0.81099486     0.06360
C283        C  0.38672860  0.07573875  0.99874356     0.03400
C284        C  0.37669293  0.08436713  0.96453708    -0.12750
C285        C  0.35486747  0.09908304  0.96484896     0.00900
C286        C  0.34305478  0.10526543  0.99940701    -0.11270
C287        C  0.35444022  0.09861310  0.78366626     0.03390
C288        C  0.37606876  0.08365832  0.78331434    -0.10690
H289        H  0.38614402  0.08004492  0.93774131     0.08990
H290        H  0.32775507  0.11842663  0.99966224     0.06520
H291        H  0.38566574  0.07946094  0.80984411     0.06360
Fe292      Fe  0.32298899  0.20402584  0.87560437     1.65780
Fe293      Fe  0.38435218  0.17750314  0.87436494     1.73250
Fe294      Fe  0.29515183  0.11450685  0.87507810     1.54420
O295        O  0.26711865  0.12220732  0.91727788    -0.81400
O296        O  0.37598919  0.14143217  0.83200907    -0.79710
O297        O  0.28615428  0.18052337  0.91884024    -0.83910
O298        O  0.28545026  0.18028202  0.83332051    -0.78760
O299        O  0.31812111  0.10101496  0.91777007    -0.80540
O300        O  0.39845873  0.21502195  0.83179462    -0.83280
C301        C  0.26707931  0.14890466  0.81991071     0.97480
C302        C  0.26730465  0.14901576  0.93159960     1.04920
O303        O  0.33416207  0.16533864  0.87499612    -1.12270
O304        O  0.39872468  0.21474043  0.91752276    -0.74700
O305        O  0.35940969  0.23264189  0.91719029    -0.78180
O306        O  0.26742478  0.12216299  0.83320335    -0.78870
C307        C  0.38626949  0.23316594  0.93081303     0.96390
O308        O  0.35878321  0.23246518  0.83321839    -0.76830
O309        O  0.37621446  0.14118066  0.91600673    -0.82020
C310        C  0.34920439  0.11381469  0.81853239     0.99010
C311        C  0.34940060  0.11405539  0.93029423     1.04930
O312        O  0.31811103  0.10050939  0.83209320    -0.77670
C313        C  0.38573971  0.23323144  0.81903555     1.03230
C314        C  0.19071597  0.11238558  0.00108924     0.03400
C315        C  0.20953563  0.12259156  0.78543621    -0.12750
C316        C  0.24670632  0.14346425  0.78529243     0.00900
C317        C  0.26514868  0.15447050  0.00084840    -0.11270
C318        C  0.24685692  0.14340466  0.96651837     0.03390
C319        C  0.20970755  0.12258367  0.96661863    -0.10690
H320        H  0.19540806  0.11329993  0.81214539     0.08990
H321        H  0.29397253  0.16920510  0.00074723     0.06520
H322        H  0.19572502  0.11407683  0.93989321     0.06360
C323        C  0.09688811  0.03804183  0.97869319    -0.21030
C324        C  0.07650327  0.04684642  0.00220780    -0.09080
C325        C  0.09405045  0.07737168  0.77553940     0.29780
C326        C  0.13114921  0.09855152  0.77500126    -0.21030
C327        C  0.15142018  0.08974771  0.00131585    -0.09090
C328        C  0.13388904  0.05905406  0.97832192     0.29790
F329        F  0.15250774  0.04871016  0.95627554    -0.19610
H330        H  0.08409180  0.01476509  0.96037997     0.18150
H331        H  0.14411159  0.12199576  0.79306846     0.18160
F332        F  0.07552174  0.08621652  0.79963202    -0.19600
C333        C  0.42359851  0.36462925  0.77112721    -0.21030
C334        C  0.43967178  0.34941645  0.74982447    -0.09080
C335        C  0.47025642  0.37186031  0.97839608     0.29780
C336        C  0.98434776  0.40881189  0.97826890    -0.21030
C337        C  0.46837209  0.42419175  0.74960653    -0.09090
C338        C  0.43770574  0.40161919  0.77108861     0.29790
F339        F  0.42192292  0.41527963  0.79296987    -0.19610
H340        H  0.39995236  0.34777166  0.78775728     0.18150
H341        H  0.00781838  0.42545327  0.96131594     0.18160
F342        F  0.98704782  0.35814255  0.95834007    -0.19600
C343        C  0.42368089  0.51604352  0.76999108    -0.21030
C344        C  0.45495105  0.03179047  0.99801932    -0.09080
C345        C  0.46337712  0.06200763  0.97593000     0.29780
C346        C  0.44108521  0.07611728  0.97625838    -0.21030
C347        C  0.41000884  0.06042151  0.99842687    -0.09090
C348        C  0.40136670  0.03006975  0.77015475     0.29790
F349        F  0.37092388  0.51347823  0.79089824    -0.19610
H350        H  0.41658146  0.49289324  0.78738799     0.18150
H351        H  0.44822284  0.09952576  0.95928295     0.18160
F352        F  0.49259092  0.07740886  0.95324933    -0.19600
C353        C  0.47822382  0.51629137  0.24847418     0.03400
C354        C  0.46310656  0.97896434  0.99748889    -0.12750
C355        C  0.48442491  0.96368651  0.99992378     0.00900
C356        C  0.02140254  0.98629164  0.00232461    -0.11270
C357        C  0.03717613  0.52365369  0.25216407     0.03390
C358        C  0.01535594  0.53845360  0.25072521    -0.10690
H359        H  0.43466004  0.96178187  0.99422452     0.08990
H360        H  0.03804092  0.97476407  0.00477641     0.06520
H361        H  0.02731192  0.56723029  0.25120812     0.06360
C362        C  0.42440666  0.81020051  0.99995022     0.03400
C363        C  0.41663013  0.79124429  0.21555569    -0.12740
C364        C  0.40156868  0.75404892  0.21549391     0.00900
C365        C  0.39479219  0.73577685  0.99989502    -0.11270
C366        C  0.40088968  0.75410961  0.03432836     0.03390
C367        C  0.41560426  0.79128031  0.03432772    -0.10690
H368        H  0.42096435  0.80520514  0.18892015     0.08990
H369        H  0.38154787  0.70679331  0.99985446     0.06520
H370        H  0.41977384  0.80533695  0.06099486     0.06360
C371        C  0.38672859  0.57573875  0.24874356     0.03400
C372        C  0.37669293  0.58436713  0.21453708    -0.12750
C373        C  0.35486746  0.59908304  0.21484896     0.00900
C374        C  0.34305477  0.60526543  0.24940702    -0.11270
C375        C  0.35444021  0.59861309  0.03366626     0.03390
C376        C  0.37606875  0.58365831  0.03331434    -0.10690
H377        H  0.38614402  0.58004492  0.18774131     0.08990
H378        H  0.32775507  0.61842663  0.24966224     0.06520
H379        H  0.38566573  0.57946094  0.05984411     0.06360
Fe380      Fe  0.32298899  0.70402583  0.12560436     1.65780
Fe381      Fe  0.38435218  0.67750314  0.12436494     1.73250
Fe382      Fe  0.29515182  0.61450685  0.12507810     1.54420
O383        O  0.26711865  0.62220732  0.16727788    -0.81400
O384        O  0.37598919  0.64143216  0.08200907    -0.79710
O385        O  0.28615428  0.68052337  0.16884024    -0.83910
O386        O  0.28545026  0.68028201  0.08332051    -0.78760
O387        O  0.31812111  0.60101496  0.16777008    -0.80540
O388        O  0.39845873  0.71502195  0.08179462    -0.83280
C389        C  0.26707930  0.64890465  0.06991071     0.97480
C390        C  0.26730464  0.64901576  0.18159960     1.04920
O391        O  0.33416206  0.66533864  0.12499612    -1.12270
O392        O  0.39872467  0.71474043  0.16752276    -0.74700
O393        O  0.35940969  0.73264189  0.16719029    -0.78180
O394        O  0.26742478  0.62216299  0.08320335    -0.78870
C395        C  0.38626949  0.73316594  0.18081303     0.96390
O396        O  0.35878320  0.73246518  0.08321838    -0.76830
O397        O  0.37621445  0.64118065  0.16600673    -0.82020
C398        C  0.34920438  0.61381469  0.06853239     0.99010
C399        C  0.34940059  0.61405539  0.18029423     1.04930
O400        O  0.31811102  0.60050939  0.08209320    -0.77670
C401        C  0.38573971  0.73323143  0.06903555     1.03230
C402        C  0.19071597  0.61238558  0.25108924     0.03400
C403        C  0.20953562  0.62259155  0.03543621    -0.12750
C404        C  0.24670631  0.64346425  0.03529243     0.00900
C405        C  0.26514868  0.65447050  0.25084840    -0.11270
C406        C  0.24685692  0.64340466  0.21651837     0.03390
C407        C  0.20970755  0.62258367  0.21661863    -0.10690
H408        H  0.19540806  0.61329993  0.06214539     0.08990
H409        H  0.29397253  0.66920510  0.25074723     0.06520
H410        H  0.19572501  0.61407683  0.18989321     0.06360
C411        C  0.09688811  0.53804183  0.22869319    -0.21030
C412        C  0.07650327  0.54684642  0.25220781    -0.09080
C413        C  0.09405044  0.57737168  0.02553938     0.29780
C414        C  0.13114920  0.59855152  0.02500125    -0.21030
C415        C  0.15142018  0.58974771  0.25131586    -0.09090
C416        C  0.13388904  0.55905406  0.22832192     0.29790
F417        F  0.15250774  0.54871017  0.20627553    -0.19610
H418        H  0.08409179  0.51476510  0.21037996     0.18150
H419        H  0.14411158  0.62199576  0.04306844     0.18160
F420        F  0.07552173  0.58621652  0.04963200    -0.19600
C421        C  0.42359852  0.86462924  0.02112722    -0.21030
C422        C  0.43967178  0.84941645  0.99982447    -0.09080
C423        C  0.47025641  0.87186031  0.22839605     0.29780
C424        C  0.98434775  0.90881189  0.22826888    -0.21030
C425        C  0.46837210  0.92419175  0.99960654    -0.09090
C426        C  0.43770574  0.90161919  0.02108862     0.29790
F427        F  0.42192293  0.91527962  0.04296989    -0.19610
H428        H  0.39995237  0.84777165  0.03775729     0.18150
H429        H  0.00781836  0.92545327  0.21131591     0.18160
F430        F  0.98704780  0.85814255  0.20834003    -0.19600
C431        C  0.42368090  0.01604353  0.01999110    -0.21030
C432        C  0.45495104  0.53179047  0.24801933    -0.09080
C433        C  0.46337713  0.56200765  0.22593002     0.29780
C434        C  0.44108522  0.57611729  0.22625840    -0.21030
C435        C  0.41000884  0.56042151  0.24842687    -0.09090
C436        C  0.40136670  0.53006975  0.02015476     0.29790
F437        F  0.37092391  0.01347826  0.04089828    -0.19610
H438        H  0.41658149  0.99289326  0.03738803     0.18150
H439        H  0.44822285  0.59952578  0.20928298     0.18160
F440        F  0.49259093  0.57740889  0.20324936    -0.19600
C441        C  0.47822382  0.51629138  0.49847419     0.03400
C442        C  0.46310656  0.97896434  0.24748889    -0.12750
C443        C  0.48442491  0.96368651  0.24992377     0.00900
C444        C  0.02140254  0.98629163  0.25232460    -0.11270
C445        C  0.03717614  0.52365370  0.50216406     0.03390
C446        C  0.01535594  0.53845361  0.50072520    -0.10690
H447        H  0.43466004  0.96178187  0.24422452     0.08990
H448        H  0.03804092  0.97476407  0.25477640     0.06520
H449        H  0.02731192  0.56723029  0.50120810     0.06360
C450        C  0.42440666  0.81020051  0.24995021     0.03400
C451        C  0.41663013  0.79124430  0.46555569    -0.12740
C452        C  0.40156868  0.75404893  0.46549391     0.00900
C453        C  0.39479219  0.73577685  0.24989502    -0.11270
C454        C  0.40088969  0.75410961  0.28432836     0.03390
C455        C  0.41560426  0.79128031  0.28432771    -0.10690
H456        H  0.42096435  0.80520514  0.43892015     0.08990
H457        H  0.38154787  0.70679331  0.24985447     0.06520
H458        H  0.41977384  0.80533696  0.31099485     0.06360
C459        C  0.38672859  0.57573875  0.49874357     0.03400
C460        C  0.37669293  0.58436713  0.46453709    -0.12750
C461        C  0.35486747  0.59908304  0.46484897     0.00900
C462        C  0.34305477  0.60526543  0.49940702    -0.11270
C463        C  0.35444021  0.59861309  0.28366626     0.03390
C464        C  0.37606875  0.58365831  0.28331435    -0.10690
H465        H  0.38614401  0.58004492  0.43774132     0.08990
H466        H  0.32775506  0.61842663  0.49966224     0.06520
H467        H  0.38566573  0.57946093  0.30984411     0.06360
Fe468      Fe  0.32298899  0.70402584  0.37560436     1.65780
Fe469      Fe  0.38435218  0.67750314  0.37436494     1.73250
Fe470      Fe  0.29515182  0.61450685  0.37507810     1.54420
O471        O  0.26711865  0.62220732  0.41727788    -0.81400
O472        O  0.37598919  0.64143216  0.33200907    -0.79710
O473        O  0.28615428  0.68052337  0.41884024    -0.83910
O474        O  0.28545026  0.68028201  0.33332051    -0.78760
O475        O  0.31812111  0.60101496  0.41777008    -0.80540
O476        O  0.39845873  0.71502195  0.33179462    -0.83280
C477        C  0.26707930  0.64890465  0.31991071     0.97480
C478        C  0.26730465  0.64901576  0.43159960     1.04920
O479        O  0.33416206  0.66533864  0.37499612    -1.12270
O480        O  0.39872468  0.71474043  0.41752276    -0.74700
O481        O  0.35940969  0.73264189  0.41719029    -0.78180
O482        O  0.26742478  0.62216299  0.33320335    -0.78870
C483        C  0.38626949  0.73316594  0.43081303     0.96390
O484        O  0.35878321  0.73246518  0.33321838    -0.76830
O485        O  0.37621446  0.64118066  0.41600673    -0.82020
C486        C  0.34920439  0.61381469  0.31853239     0.99010
C487        C  0.34940060  0.61405539  0.43029424     1.04930
O488        O  0.31811103  0.60050939  0.33209320    -0.77670
C489        C  0.38573972  0.73323144  0.31903555     1.03230
C490        C  0.19071597  0.61238558  0.50108924     0.03400
C491        C  0.20953562  0.62259155  0.28543621    -0.12750
C492        C  0.24670631  0.64346425  0.28529243     0.00900
C493        C  0.26514868  0.65447051  0.50084840    -0.11270
C494        C  0.24685692  0.64340467  0.46651836     0.03390
C495        C  0.20970755  0.62258368  0.46661863    -0.10690
H496        H  0.19540806  0.61329993  0.31214539     0.08990
H497        H  0.29397253  0.66920511  0.50074723     0.06520
H498        H  0.19572502  0.61407684  0.43989321     0.06360
C499        C  0.09688811  0.53804184  0.47869318    -0.21030
C500        C  0.07650327  0.54684643  0.50220780    -0.09080
C501        C  0.09405044  0.57737167  0.27553940     0.29780
C502        C  0.13114920  0.59855151  0.27500126    -0.21030
C503        C  0.15142018  0.58974772  0.50131585    -0.09090
C504        C  0.13388904  0.55905407  0.47832191     0.29790
F505        F  0.15250774  0.54871018  0.45627553    -0.19610
H506        H  0.08409180  0.51476510  0.46037996     0.18150
H507        H  0.14411159  0.62199574  0.29306847     0.18160
F508        F  0.07552174  0.58621651  0.29963203    -0.19600
C509        C  0.42359853  0.86462924  0.27112723    -0.21030
C510        C  0.43967178  0.84941645  0.24982447    -0.09080
C511        C  0.47025641  0.87186031  0.47839605     0.29780
C512        C  0.98434775  0.90881190  0.47826888    -0.21030
C513        C  0.46837209  0.92419175  0.24960653    -0.09090
C514        C  0.43770575  0.90161919  0.27108863     0.29790
F515        F  0.42192294  0.91527963  0.29296991    -0.19610
H516        H  0.39995238  0.84777166  0.28775731     0.18150
H517        H  0.00781836  0.92545327  0.46131592     0.18160
F518        F  0.98704780  0.85814255  0.45834004    -0.19600
C519        C  0.42368090  0.01604353  0.26999110    -0.21030
C520        C  0.45495105  0.53179047  0.49801933    -0.09080
C521        C  0.46337711  0.56200763  0.47593001     0.29780
C522        C  0.44108521  0.57611728  0.47625838    -0.21030
C523        C  0.41000884  0.56042151  0.49842688    -0.09090
C524        C  0.40136669  0.53006974  0.27015474     0.29790
F525        F  0.37092391  0.01347825  0.29089828    -0.19610
H526        H  0.41658148  0.99289326  0.28738803     0.18150
H527        H  0.44822284  0.59952576  0.45928295     0.18160
F528        F  0.49259091  0.57740886  0.45324933    -0.19600
C529        C  0.47822382  0.51629138  0.74847418     0.03400
C530        C  0.46310655  0.97896434  0.49748890    -0.12750
C531        C  0.48442491  0.96368652  0.49992377     0.00900
C532        C  0.02140254  0.98629164  0.50232460    -0.11270
C533        C  0.03717613  0.52365370  0.75216407     0.03390
C534        C  0.01535594  0.53845361  0.75072520    -0.10690
H535        H  0.43466003  0.96178187  0.49422454     0.08990
H536        H  0.03804092  0.97476407  0.50477640     0.06520
H537        H  0.02731192  0.56723029  0.75120810     0.06360
C538        C  0.42440666  0.81020051  0.49995021     0.03400
C539        C  0.41663013  0.79124430  0.71555570    -0.12740
C540        C  0.40156868  0.75404893  0.71549391     0.00900
C541        C  0.39479219  0.73577685  0.49989502    -0.11270
C542        C  0.40088969  0.75410962  0.53432836     0.03390
C543        C  0.41560426  0.79128032  0.53432772    -0.10690
H544        H  0.42096435  0.80520515  0.68892015     0.08990
H545        H  0.38154787  0.70679331  0.49985447     0.06520
H546        H  0.41977384  0.80533696  0.56099485     0.06360
C547        C  0.38672859  0.57573875  0.74874356     0.03400
C548        C  0.37669293  0.58436713  0.71453708    -0.12750
C549        C  0.35486746  0.59908304  0.71484896     0.00900
C550        C  0.34305477  0.60526543  0.74940701    -0.11270
C551        C  0.35444021  0.59861310  0.53366626     0.03390
C552        C  0.37606875  0.58365832  0.53331435    -0.10690
H553        H  0.38614402  0.58004493  0.68774131     0.08990
H554        H  0.32775506  0.61842663  0.74966224     0.06520
H555        H  0.38566573  0.57946094  0.55984411     0.06360
Fe556      Fe  0.32298899  0.70402584  0.62560436     1.65780
Fe557      Fe  0.38435218  0.67750314  0.62436494     1.73250
Fe558      Fe  0.29515182  0.61450685  0.62507810     1.54420
O559        O  0.26711865  0.62220732  0.66727788    -0.81400
O560        O  0.37598919  0.64143217  0.58200907    -0.79710
O561        O  0.28615427  0.68052337  0.66884024    -0.83910
O562        O  0.28545026  0.68028202  0.58332051    -0.78760
O563        O  0.31812111  0.60101496  0.66777008    -0.80540
O564        O  0.39845873  0.71502195  0.58179462    -0.83280
C565        C  0.26707930  0.64890466  0.56991071     0.97480
C566        C  0.26730464  0.64901576  0.68159960     1.04920
O567        O  0.33416206  0.66533865  0.62499612    -1.12270
O568        O  0.39872467  0.71474043  0.66752276    -0.74700
O569        O  0.35940969  0.73264190  0.66719029    -0.78180
O570        O  0.26742478  0.62216300  0.58320335    -0.78870
C571        C  0.38626949  0.73316594  0.68081303     0.96390
O572        O  0.35878320  0.73246518  0.58321838    -0.76830
O573        O  0.37621445  0.64118066  0.66600673    -0.82020
C574        C  0.34920438  0.61381469  0.56853239     0.99010
C575        C  0.34940059  0.61405540  0.68029423     1.04930
O576        O  0.31811102  0.60050939  0.58209320    -0.77670
C577        C  0.38573971  0.73323144  0.56903555     1.03230
C578        C  0.19071597  0.61238559  0.75108924     0.03400
C579        C  0.20953562  0.62259156  0.53543621    -0.12750
C580        C  0.24670631  0.64346425  0.53529243     0.00900
C581        C  0.26514868  0.65447051  0.75084840    -0.11270
C582        C  0.24685692  0.64340467  0.71651837     0.03390
C583        C  0.20970755  0.62258368  0.71661863    -0.10690
H584        H  0.19540806  0.61329993  0.56214539     0.08990
H585        H  0.29397253  0.66920510  0.75074723     0.06520
H586        H  0.19572501  0.61407684  0.68989321     0.06360
C587        C  0.09688811  0.53804183  0.72869320    -0.21030
C588        C  0.07650327  0.54684643  0.75220781    -0.09080
C589        C  0.09405044  0.57737168  0.52553939     0.29780
C590        C  0.13114920  0.59855152  0.52500125    -0.21030
C591        C  0.15142018  0.58974772  0.75131586    -0.09090
C592        C  0.13388904  0.55905407  0.72832193     0.29790
F593        F  0.15250774  0.54871017  0.70627554    -0.19610
H594        H  0.08409180  0.51476510  0.71037997     0.18150
H595        H  0.14411159  0.62199575  0.54306845     0.18160
F596        F  0.07552174  0.58621651  0.54963201    -0.19600
C597        C  0.42359853  0.86462925  0.52112723    -0.21030
C598        C  0.43967178  0.84941645  0.49982447    -0.09080
C599        C  0.47025642  0.87186031  0.72839607     0.29780
C600        C  0.98434776  0.90881190  0.72826890    -0.21030
C601        C  0.46837209  0.92419175  0.49960654    -0.09090
C602        C  0.43770575  0.90161919  0.52108864     0.29790
F603        F  0.42192295  0.91527963  0.54296992    -0.19610
H604        H  0.39995239  0.84777166  0.53775732     0.18150
H605        H  0.00781838  0.92545327  0.71131594     0.18160
F606        F  0.98704783  0.85814255  0.70834007    -0.19600
C607        C  0.42368091  0.01604355  0.51999112    -0.21030
C608        C  0.45495104  0.53179047  0.74801932    -0.09080
C609        C  0.46337713  0.56200766  0.72593002     0.29780
C610        C  0.44108522  0.57611730  0.72625840    -0.21030
C611        C  0.41000884  0.56042151  0.74842687    -0.09090
C612        C  0.40136671  0.53006976  0.52015476     0.29790
F613        F  0.37092393  0.01347828  0.54089832    -0.19610
H614        H  0.41658150  0.99289328  0.53738806     0.18150
H615        H  0.44822286  0.59952580  0.70928298     0.18160
F616        F  0.49259094  0.57740890  0.70324937    -0.19600
C617        C  0.47822381  0.51629137  0.99847418     0.03400
C618        C  0.46310656  0.97896434  0.74748889    -0.12750
C619        C  0.48442491  0.96368652  0.74992377     0.00900
C620        C  0.02140254  0.98629164  0.75232461    -0.11270
C621        C  0.03717613  0.52365370  0.00216406     0.03390
C622        C  0.01535593  0.53845360  0.00072519    -0.10690
H623        H  0.43466004  0.96178188  0.74422451     0.08990
H624        H  0.03804092  0.97476407  0.75477641     0.06520
H625        H  0.02731191  0.56723029  0.00120808     0.06360
C626        C  0.42440666  0.81020051  0.74995022     0.03400
C627        C  0.41663013  0.79124429  0.96555570    -0.12740
C628        C  0.40156868  0.75404892  0.96549391     0.00900
C629        C  0.39479219  0.73577685  0.74989502    -0.11270
C630        C  0.40088968  0.75410962  0.78432836     0.03390
C631        C  0.41560425  0.79128032  0.78432772    -0.10690
H632        H  0.42096436  0.80520514  0.93892015     0.08990
H633        H  0.38154787  0.70679332  0.74985446     0.06520
H634        H  0.41977384  0.80533696  0.81099486     0.06360
C635        C  0.38672859  0.57573875  0.99874356     0.03400
C636        C  0.37669293  0.58436713  0.96453708    -0.12750
C637        C  0.35486746  0.59908304  0.96484896     0.00900
C638        C  0.34305477  0.60526543  0.99940701    -0.11270
C639        C  0.35444021  0.59861309  0.78366626     0.03390
C640        C  0.37606875  0.58365831  0.78331434    -0.10690
H641        H  0.38614401  0.58004491  0.93774131     0.08990
H642        H  0.32775506  0.61842663  0.99966224     0.06520
H643        H  0.38566573  0.57946093  0.80984411     0.06360
Fe644      Fe  0.32298899  0.70402584  0.87560437     1.65780
Fe645      Fe  0.38435218  0.67750314  0.87436494     1.73250
Fe646      Fe  0.29515182  0.61450685  0.87507810     1.54420
O647        O  0.26711865  0.62220732  0.91727788    -0.81400
O648        O  0.37598919  0.64143216  0.83200907    -0.79710
O649        O  0.28615428  0.68052337  0.91884024    -0.83910
O650        O  0.28545026  0.68028202  0.83332051    -0.78760
O651        O  0.31812111  0.60101496  0.91777008    -0.80540
O652        O  0.39845873  0.71502195  0.83179462    -0.83280
C653        C  0.26707930  0.64890466  0.81991071     0.97480
C654        C  0.26730465  0.64901576  0.93159960     1.04920
O655        O  0.33416206  0.66533864  0.87499612    -1.12270
O656        O  0.39872468  0.71474043  0.91752276    -0.74700
O657        O  0.35940969  0.73264189  0.91719029    -0.78180
O658        O  0.26742478  0.62216299  0.83320335    -0.78870
C659        C  0.38626949  0.73316594  0.93081303     0.96390
O660        O  0.35878321  0.73246518  0.83321838    -0.76830
O661        O  0.37621445  0.64118066  0.91600673    -0.82020
C662        C  0.34920438  0.61381469  0.81853239     0.99010
C663        C  0.34940059  0.61405539  0.93029423     1.04930
O664        O  0.31811102  0.60050939  0.83209320    -0.77670
C665        C  0.38573971  0.73323144  0.81903555     1.03230
C666        C  0.19071597  0.61238558  0.00108924     0.03400
C667        C  0.20953562  0.62259156  0.78543621    -0.12750
C668        C  0.24670631  0.64346425  0.78529243     0.00900
C669        C  0.26514868  0.65447050  0.00084840    -0.11270
C670        C  0.24685692  0.64340467  0.96651837     0.03390
C671        C  0.20970755  0.62258368  0.96661863    -0.10690
H672        H  0.19540806  0.61329993  0.81214539     0.08990
H673        H  0.29397253  0.66920510  0.00074723     0.06520
H674        H  0.19572502  0.61407684  0.93989321     0.06360
C675        C  0.09688811  0.53804183  0.97869319    -0.21030
C676        C  0.07650327  0.54684643  0.00220780    -0.09080
C677        C  0.09405044  0.57737168  0.77553939     0.29780
C678        C  0.13114920  0.59855153  0.77500126    -0.21030
C679        C  0.15142018  0.58974772  0.00131585    -0.09090
C680        C  0.13388904  0.55905406  0.97832192     0.29790
F681        F  0.15250774  0.54871017  0.95627554    -0.19610
H682        H  0.08409180  0.51476510  0.96037997     0.18150
H683        H  0.14411159  0.62199576  0.79306845     0.18160
F684        F  0.07552173  0.58621652  0.79963201    -0.19600
C685        C  0.42359851  0.86462924  0.77112722    -0.21030
C686        C  0.43967178  0.84941645  0.74982447    -0.09080
C687        C  0.47025643  0.87186031  0.97839607     0.29780
C688        C  0.98434776  0.90881189  0.97826890    -0.21030
C689        C  0.46837209  0.92419175  0.74960654    -0.09090
C690        C  0.43770574  0.90161919  0.77108862     0.29790
F691        F  0.42192292  0.91527963  0.79296989    -0.19610
H692        H  0.39995236  0.84777166  0.78775729     0.18150
H693        H  0.00781838  0.92545327  0.96131594     0.18160
F694        F  0.98704782  0.85814255  0.95834007    -0.19600
C695        C  0.42368090  0.01604354  0.76999110    -0.21030
C696        C  0.45495104  0.53179046  0.99801933    -0.09080
C697        C  0.46337711  0.56200762  0.97593000     0.29780
C698        C  0.44108520  0.57611727  0.97625837    -0.21030
C699        C  0.41000883  0.56042150  0.99842687    -0.09090
C700        C  0.40136669  0.53006974  0.77015473     0.29790
F701        F  0.37092391  0.01347826  0.79089828    -0.19610
H702        H  0.41658149  0.99289326  0.78738802     0.18150
H703        H  0.44822283  0.59952575  0.95928294     0.18160
F704        F  0.49259090  0.57740885  0.95324932    -0.19600
C705        C  0.97822382  0.01629137  0.24847419     0.03400
C706        C  0.96310655  0.47896433  0.99748890    -0.12750
C707        C  0.98442491  0.46368651  0.99992378     0.00900
C708        C  0.52140253  0.48629164  0.00232461    -0.11270
C709        C  0.53717614  0.02365369  0.25216407     0.03390
C710        C  0.51535594  0.03845360  0.25072520    -0.10690
H711        H  0.93466003  0.46178187  0.99422453     0.08990
H712        H  0.53804092  0.47476407  0.00477641     0.06520
H713        H  0.52731192  0.06723029  0.25120810     0.06360
C714        C  0.92440666  0.31020051  0.99995022     0.03400
C715        C  0.91663013  0.29124429  0.21555569    -0.12740
C716        C  0.90156868  0.25404892  0.21549391     0.00900
C717        C  0.89479219  0.23577685  0.99989502    -0.11270
C718        C  0.90088969  0.25410961  0.03432836     0.03390
C719        C  0.91560426  0.29128031  0.03432772    -0.10690
H720        H  0.92096435  0.30520514  0.18892015     0.08990
H721        H  0.88154787  0.20679331  0.99985446     0.06520
H722        H  0.91977384  0.30533695  0.06099486     0.06360
C723        C  0.88672860  0.07573875  0.24874357     0.03400
C724        C  0.87669293  0.08436713  0.21453709    -0.12750
C725        C  0.85486747  0.09908304  0.21484896     0.00900
C726        C  0.84305478  0.10526543  0.24940702    -0.11270
C727        C  0.85444022  0.09861309  0.03366626     0.03390
C728        C  0.87606876  0.08365832  0.03331434    -0.10690
H729        H  0.88614402  0.08004491  0.18774132     0.08990
H730        H  0.82775507  0.11842663  0.24966224     0.06520
H731        H  0.88566574  0.07946094  0.05984411     0.06360
Fe732      Fe  0.82298900  0.20402583  0.12560436     1.65780
Fe733      Fe  0.88435219  0.17750314  0.12436494     1.73250
Fe734      Fe  0.79515183  0.11450685  0.12507810     1.54420
O735        O  0.76711865  0.12220731  0.16727788    -0.81400
O736        O  0.87598919  0.14143216  0.08200907    -0.79710
O737        O  0.78615428  0.18052337  0.16884024    -0.83910
O738        O  0.78545026  0.18028201  0.08332051    -0.78760
O739        O  0.81812111  0.10101496  0.16777008    -0.80540
O740        O  0.89845873  0.21502195  0.08179463    -0.83280
C741        C  0.76707931  0.14890465  0.06991071     0.97480
C742        C  0.76730465  0.14901576  0.18159960     1.04920
O743        O  0.83416207  0.16533864  0.12499612    -1.12270
O744        O  0.89872468  0.21474042  0.16752277    -0.74700
O745        O  0.85940970  0.23264189  0.16719029    -0.78180
O746        O  0.76742479  0.12216299  0.08320335    -0.78870
C747        C  0.88626949  0.23316593  0.18081303     0.96390
O748        O  0.85878321  0.23246518  0.08321838    -0.76830
O749        O  0.87621446  0.14118065  0.16600673    -0.82020
C750        C  0.84920439  0.11381469  0.06853239     0.99010
C751        C  0.84940060  0.11405539  0.18029423     1.04930
O752        O  0.81811103  0.10050938  0.08209320    -0.77670
C753        C  0.88573972  0.23323143  0.06903555     1.03230
C754        C  0.69071598  0.11238558  0.25108924     0.03400
C755        C  0.70953563  0.12259155  0.03543621    -0.12750
C756        C  0.74670632  0.14346425  0.03529243     0.00900
C757        C  0.76514868  0.15447050  0.25084840    -0.11270
C758        C  0.74685692  0.14340466  0.21651837     0.03390
C759        C  0.70970756  0.12258367  0.21661863    -0.10690
H760        H  0.69540806  0.11329993  0.06214539     0.08990
H761        H  0.79397253  0.16920510  0.25074723     0.06520
H762        H  0.69572502  0.11407683  0.18989321     0.06360
C763        C  0.59688811  0.03804183  0.22869319    -0.21030
C764        C  0.57650327  0.04684642  0.25220780    -0.09080
C765        C  0.59405045  0.07737168  0.02553939     0.29780
C766        C  0.63114921  0.09855152  0.02500125    -0.21030
C767        C  0.65142018  0.08974771  0.25131585    -0.09090
C768        C  0.63388904  0.05905406  0.22832192     0.29790
F769        F  0.65250775  0.04871017  0.20627553    -0.19610
H770        H  0.58409180  0.01476510  0.21037996     0.18150
H771        H  0.64411159  0.12199576  0.04306845     0.18160
F772        F  0.57552174  0.08621652  0.04963201    -0.19600
C773        C  0.92359852  0.36462924  0.02112723    -0.21030
C774        C  0.93967178  0.34941645  0.99982448    -0.09080
C775        C  0.97025641  0.37186031  0.22839605     0.29780
C776        C  0.48434775  0.40881189  0.22826887    -0.21030
C777        C  0.96837209  0.42419175  0.99960654    -0.09090
C778        C  0.93770575  0.40161919  0.02108864     0.29790
F779        F  0.92192293  0.41527962  0.04296991    -0.19610
H780        H  0.89995237  0.34777165  0.03775731     0.18150
H781        H  0.50781836  0.42545327  0.21131591     0.18160
F782        F  0.48704780  0.35814255  0.20834003    -0.19600
C783        C  0.92368091  0.51604355  0.01999112    -0.21030
C784        C  0.95495105  0.03179047  0.24801933    -0.09080
C785        C  0.96337712  0.06200763  0.22593001     0.29780
C786        C  0.94108521  0.07611728  0.22625839    -0.21030
C787        C  0.91000884  0.06042151  0.24842688    -0.09090
C788        C  0.90136670  0.03006975  0.02015475     0.29790
F789        F  0.87092394  0.51347829  0.04089832    -0.19610
H790        H  0.91658151  0.49289328  0.03738806     0.18150
H791        H  0.94822284  0.09952576  0.20928295     0.18160
F792        F  0.99259092  0.07740886  0.20324934    -0.19600
C793        C  0.97822382  0.01629138  0.49847419     0.03400
C794        C  0.96310655  0.47896434  0.24748889    -0.12750
C795        C  0.98442491  0.46368651  0.24992377     0.00900
C796        C  0.52140253  0.48629163  0.25232460    -0.11270
C797        C  0.53717614  0.02365370  0.50216406     0.03390
C798        C  0.51535594  0.03845361  0.50072519    -0.10690
H799        H  0.93466003  0.46178187  0.24422451     0.08990
H800        H  0.53804091  0.47476406  0.25477639     0.06520
H801        H  0.52731192  0.06723029  0.50120808     0.06360
C802        C  0.92440666  0.31020051  0.24995021     0.03400
C803        C  0.91663013  0.29124430  0.46555569    -0.12740
C804        C  0.90156868  0.25404893  0.46549391     0.00900
C805        C  0.89479219  0.23577685  0.24989502    -0.11270
C806        C  0.90088969  0.25410961  0.28432836     0.03390
C807        C  0.91560426  0.29128031  0.28432771    -0.10690
H808        H  0.92096435  0.30520514  0.43892015     0.08990
H809        H  0.88154788  0.20679331  0.24985447     0.06520
H810        H  0.91977384  0.30533696  0.31099485     0.06360
C811        C  0.88672860  0.07573875  0.49874357     0.03400
C812        C  0.87669293  0.08436713  0.46453709    -0.12750
C813        C  0.85486747  0.09908304  0.46484897     0.00900
C814        C  0.84305478  0.10526543  0.49940702    -0.11270
C815        C  0.85444022  0.09861310  0.28366626     0.03390
C816        C  0.87606875  0.08365832  0.28331435    -0.10690
H817        H  0.88614402  0.08004492  0.43774132     0.08990
H818        H  0.82775507  0.11842663  0.49966224     0.06520
H819        H  0.88566574  0.07946094  0.30984411     0.06360
Fe820      Fe  0.82298900  0.20402584  0.37560436     1.65780
Fe821      Fe  0.88435219  0.17750314  0.37436494     1.73250
Fe822      Fe  0.79515183  0.11450685  0.37507810     1.54420
O823        O  0.76711866  0.12220732  0.41727788    -0.81400
O824        O  0.87598919  0.14143216  0.33200907    -0.79710
O825        O  0.78615428  0.18052337  0.41884024    -0.83910
O826        O  0.78545026  0.18028201  0.33332051    -0.78760
O827        O  0.81812111  0.10101496  0.41777008    -0.80540
O828        O  0.89845873  0.21502195  0.33179462    -0.83280
C829        C  0.76707931  0.14890465  0.31991071     0.97480
C830        C  0.76730465  0.14901576  0.43159960     1.04920
O831        O  0.83416207  0.16533864  0.37499612    -1.12270
O832        O  0.89872468  0.21474043  0.41752276    -0.74700
O833        O  0.85940969  0.23264189  0.41719029    -0.78180
O834        O  0.76742478  0.12216299  0.33320335    -0.78870
C835        C  0.88626949  0.23316594  0.43081303     0.96390
O836        O  0.85878321  0.23246518  0.33321838    -0.76830
O837        O  0.87621446  0.14118066  0.41600673    -0.82020
C838        C  0.84920439  0.11381469  0.31853239     0.99010
C839        C  0.84940060  0.11405539  0.43029423     1.04930
O840        O  0.81811103  0.10050939  0.33209320    -0.77670
C841        C  0.88573972  0.23323144  0.31903555     1.03230
C842        C  0.69071597  0.11238558  0.50108924     0.03400
C843        C  0.70953563  0.12259155  0.28543621    -0.12750
C844        C  0.74670632  0.14346425  0.28529243     0.00900
C845        C  0.76514868  0.15447051  0.50084840    -0.11270
C846        C  0.74685692  0.14340467  0.46651836     0.03390
C847        C  0.70970755  0.12258368  0.46661863    -0.10690
H848        H  0.69540806  0.11329993  0.31214539     0.08990
H849        H  0.79397253  0.16920510  0.50074723     0.06520
H850        H  0.69572502  0.11407684  0.43989320     0.06360
C851        C  0.59688811  0.03804184  0.47869318    -0.21030
C852        C  0.57650327  0.04684643  0.50220779    -0.09080
C853        C  0.59405045  0.07737167  0.27553939     0.29780
C854        C  0.63114921  0.09855151  0.27500125    -0.21030
C855        C  0.65142018  0.08974772  0.50131585    -0.09090
C856        C  0.63388904  0.05905407  0.47832191     0.29790
F857        F  0.65250775  0.04871017  0.45627553    -0.19610
H858        H  0.58409180  0.01476510  0.46037995     0.18150
H859        H  0.64411159  0.12199575  0.29306846     0.18160
F860        F  0.57552174  0.08621651  0.29963202    -0.19600
C861        C  0.92359852  0.36462924  0.27112722    -0.21030
C862        C  0.93967178  0.34941645  0.24982446    -0.09080
C863        C  0.97025641  0.37186031  0.47839605     0.29780
C864        C  0.48434775  0.40881190  0.47826888    -0.21030
C865        C  0.96837209  0.42419175  0.24960653    -0.09090
C866        C  0.93770575  0.40161919  0.27108862     0.29790
F867        F  0.92192294  0.41527963  0.29296990    -0.19610
H868        H  0.89995238  0.34777165  0.28775730     0.18150
H869        H  0.50781836  0.42545327  0.46131592     0.18160
F870        F  0.48704780  0.35814256  0.45834004    -0.19600
C871        C  0.92368089  0.51604352  0.26999109    -0.21030
C872        C  0.95495105  0.03179047  0.49801933    -0.09080
C873        C  0.96337712  0.06200763  0.47593001     0.29780
C874        C  0.94108521  0.07611728  0.47625838    -0.21030
C875        C  0.91000884  0.06042151  0.49842688    -0.09090
C876        C  0.90136670  0.03006975  0.27015476     0.29790
F877        F  0.87092389  0.51347823  0.29089825    -0.19610
H878        H  0.91658146  0.49289324  0.28738800     0.18150
H879        H  0.94822284  0.09952576  0.45928295     0.18160
F880        F  0.99259091  0.07740886  0.45324933    -0.19600
C881        C  0.97822382  0.01629138  0.74847418     0.03400
C882        C  0.96310655  0.47896434  0.49748889    -0.12750
C883        C  0.98442491  0.46368652  0.49992376     0.00900
C884        C  0.52140254  0.48629164  0.50232460    -0.11270
C885        C  0.53717614  0.02365370  0.75216407     0.03390
C886        C  0.51535594  0.03845361  0.75072520    -0.10690
H887        H  0.93466003  0.46178188  0.49422451     0.08990
H888        H  0.53804092  0.47476407  0.50477640     0.06520
H889        H  0.52731192  0.06723029  0.75120809     0.06360
C890        C  0.92440666  0.31020051  0.49995021     0.03400
C891        C  0.91663013  0.29124430  0.71555570    -0.12740
C892        C  0.90156868  0.25404893  0.71549391     0.00900
C893        C  0.89479219  0.23577685  0.49989502    -0.11270
C894        C  0.90088968  0.25410962  0.53432836     0.03390
C895        C  0.91560426  0.29128032  0.53432771    -0.10690
H896        H  0.92096435  0.30520515  0.68892015     0.08990
H897        H  0.88154787  0.20679332  0.49985447     0.06520
H898        H  0.91977384  0.30533696  0.56099485     0.06360
C899        C  0.88672860  0.07573876  0.74874356     0.03400
C900        C  0.87669293  0.08436714  0.71453708    -0.12750
C901        C  0.85486747  0.09908304  0.71484896     0.00900
C902        C  0.84305478  0.10526543  0.74940701    -0.11270
C903        C  0.85444022  0.09861310  0.53366626     0.03390
C904        C  0.87606875  0.08365832  0.53331435    -0.10690
H905        H  0.88614402  0.08004493  0.68774131     0.08990
H906        H  0.82775507  0.11842663  0.74966224     0.06520
H907        H  0.88566574  0.07946094  0.55984411     0.06360
Fe908      Fe  0.82298899  0.20402584  0.62560436     1.65780
Fe909      Fe  0.88435218  0.17750314  0.62436494     1.73250
Fe910      Fe  0.79515182  0.11450685  0.62507810     1.54420
O911        O  0.76711865  0.12220732  0.66727788    -0.81400
O912        O  0.87598919  0.14143217  0.58200907    -0.79710
O913        O  0.78615428  0.18052337  0.66884024    -0.83910
O914        O  0.78545026  0.18028202  0.58332051    -0.78760
O915        O  0.81812111  0.10101496  0.66777008    -0.80540
O916        O  0.89845873  0.21502195  0.58179462    -0.83280
C917        C  0.76707930  0.14890466  0.56991071     0.97480
C918        C  0.76730465  0.14901576  0.68159960     1.04920
O919        O  0.83416206  0.16533865  0.62499612    -1.12270
O920        O  0.89872468  0.21474043  0.66752276    -0.74700
O921        O  0.85940969  0.23264190  0.66719029    -0.78180
O922        O  0.76742478  0.12216299  0.58320335    -0.78870
C923        C  0.88626949  0.23316594  0.68081303     0.96390
O924        O  0.85878320  0.23246518  0.58321838    -0.76830
O925        O  0.87621446  0.14118066  0.66600673    -0.82020
C926        C  0.84920439  0.11381470  0.56853239     0.99010
C927        C  0.84940060  0.11405540  0.68029423     1.04930
O928        O  0.81811103  0.10050939  0.58209320    -0.77670
C929        C  0.88573971  0.23323144  0.56903555     1.03230
C930        C  0.69071597  0.11238559  0.75108924     0.03400
C931        C  0.70953562  0.12259155  0.53543621    -0.12750
C932        C  0.74670631  0.14346425  0.53529243     0.00900
C933        C  0.76514868  0.15447051  0.75084840    -0.11270
C934        C  0.74685692  0.14340467  0.71651837     0.03390
C935        C  0.70970755  0.12258368  0.71661863    -0.10690
H936        H  0.69540806  0.11329993  0.56214539     0.08990
H937        H  0.79397253  0.16920510  0.75074723     0.06520
H938        H  0.69572502  0.11407684  0.68989321     0.06360
C939        C  0.59688811  0.03804183  0.72869320    -0.21030
C940        C  0.57650327  0.04684643  0.75220781    -0.09080
C941        C  0.59405044  0.07737168  0.52553938     0.29780
C942        C  0.63114920  0.09855152  0.52500125    -0.21030
C943        C  0.65142018  0.08974772  0.75131586    -0.09090
C944        C  0.63388904  0.05905406  0.72832193     0.29790
F945        F  0.65250775  0.04871017  0.70627554    -0.19610
H946        H  0.58409180  0.01476510  0.71037997     0.18150
H947        H  0.64411159  0.12199575  0.54306845     0.18160
F948        F  0.57552173  0.08621652  0.54963200    -0.19600
C949        C  0.92359852  0.36462925  0.52112722    -0.21030
C950        C  0.93967178  0.34941645  0.49982446    -0.09080
C951        C  0.97025642  0.37186032  0.72839608     0.29780
C952        C  0.48434776  0.40881190  0.72826890    -0.21030
C953        C  0.96837209  0.42419175  0.49960653    -0.09090
C954        C  0.93770575  0.40161919  0.52108863     0.29790
F955        F  0.92192294  0.41527963  0.54296990    -0.19610
H956        H  0.89995238  0.34777166  0.53775731     0.18150
H957        H  0.50781838  0.42545327  0.71131594     0.18160
F958        F  0.48704783  0.35814256  0.70834007    -0.19600
C959        C  0.92368090  0.51604353  0.51999109    -0.21030
C960        C  0.95495105  0.03179047  0.74801932    -0.09080
C961        C  0.96337713  0.06200765  0.72593002     0.29780
C962        C  0.94108522  0.07611730  0.72625840    -0.21030
C963        C  0.91000884  0.06042151  0.74842687    -0.09090
C964        C  0.90136671  0.03006976  0.52015477     0.29790
F965        F  0.87092390  0.51347825  0.54089826    -0.19610
H966        H  0.91658148  0.49289325  0.53738801     0.18150
H967        H  0.94822286  0.09952580  0.70928298     0.18160
F968        F  0.99259094  0.07740890  0.70324936    -0.19600
C969        C  0.97822382  0.01629137  0.99847418     0.03400
C970        C  0.96310655  0.47896434  0.74748889    -0.12750
C971        C  0.98442491  0.46368652  0.74992377     0.00900
C972        C  0.52140254  0.48629164  0.75232461    -0.11270
C973        C  0.53717614  0.02365370  0.00216407     0.03390
C974        C  0.51535594  0.03845360  0.00072520    -0.10690
H975        H  0.93466003  0.46178188  0.74422451     0.08990
H976        H  0.53804092  0.47476407  0.75477641     0.06520
H977        H  0.52731192  0.06723029  0.00120809     0.06360
C978        C  0.92440666  0.31020051  0.74995022     0.03400
C979        C  0.91663013  0.29124429  0.96555570    -0.12740
C980        C  0.90156868  0.25404893  0.96549391     0.00900
C981        C  0.89479219  0.23577685  0.74989502    -0.11270
C982        C  0.90088969  0.25410962  0.78432836     0.03390
C983        C  0.91560426  0.29128032  0.78432772    -0.10690
H984        H  0.92096436  0.30520515  0.93892015     0.08990
H985        H  0.88154787  0.20679332  0.74985446     0.06520
H986        H  0.91977384  0.30533696  0.81099486     0.06360
C987        C  0.88672860  0.07573875  0.99874356     0.03400
C988        C  0.87669293  0.08436713  0.96453708    -0.12750
C989        C  0.85486747  0.09908304  0.96484896     0.00900
C990        C  0.84305478  0.10526543  0.99940701    -0.11270
C991        C  0.85444022  0.09861310  0.78366626     0.03390
C992        C  0.87606875  0.08365832  0.78331434    -0.10690
H993        H  0.88614402  0.08004492  0.93774131     0.08990
H994        H  0.82775507  0.11842663  0.99966224     0.06520
H995        H  0.88566573  0.07946093  0.80984411     0.06360
Fe996      Fe  0.82298899  0.20402584  0.87560437     1.65780
Fe997      Fe  0.88435218  0.17750314  0.87436494     1.73250
Fe998      Fe  0.79515183  0.11450685  0.87507810     1.54420
O999        O  0.76711866  0.12220732  0.91727788    -0.81400
O1000       O  0.87598919  0.14143216  0.83200907    -0.79710
O1001       O  0.78615428  0.18052337  0.91884024    -0.83910
O1002       O  0.78545026  0.18028202  0.83332051    -0.78760
O1003       O  0.81812111  0.10101496  0.91777008    -0.80540
O1004       O  0.89845873  0.21502195  0.83179462    -0.83280
C1005       C  0.76707930  0.14890466  0.81991071     0.97480
C1006       C  0.76730465  0.14901576  0.93159960     1.04920
O1007       O  0.83416206  0.16533865  0.87499612    -1.12270
O1008       O  0.89872468  0.21474043  0.91752276    -0.74700
O1009       O  0.85940969  0.23264189  0.91719029    -0.78180
O1010       O  0.76742478  0.12216299  0.83320335    -0.78870
C1011       C  0.88626949  0.23316594  0.93081303     0.96390
O1012       O  0.85878321  0.23246518  0.83321838    -0.76830
O1013       O  0.87621446  0.14118066  0.91600673    -0.82020
C1014       C  0.84920439  0.11381469  0.81853239     0.99010
C1015       C  0.84940060  0.11405539  0.93029423     1.04930
O1016       O  0.81811103  0.10050939  0.83209320    -0.77670
C1017       C  0.88573971  0.23323144  0.81903555     1.03230
C1018       C  0.69071597  0.11238558  0.00108924     0.03400
C1019       C  0.70953563  0.12259156  0.78543621    -0.12750
C1020       C  0.74670631  0.14346425  0.78529243     0.00900
C1021       C  0.76514868  0.15447050  0.00084840    -0.11270
C1022       C  0.74685692  0.14340466  0.96651837     0.03390
C1023       C  0.70970755  0.12258368  0.96661863    -0.10690
H1024       H  0.69540806  0.11329993  0.81214539     0.08990
H1025       H  0.79397253  0.16920510  0.00074723     0.06520
H1026       H  0.69572502  0.11407684  0.93989321     0.06360
C1027       C  0.59688811  0.03804183  0.97869319    -0.21030
C1028       C  0.57650327  0.04684643  0.00220781    -0.09080
C1029       C  0.59405045  0.07737168  0.77553939     0.29780
C1030       C  0.63114920  0.09855152  0.77500126    -0.21030
C1031       C  0.65142018  0.08974772  0.00131586    -0.09090
C1032       C  0.63388904  0.05905406  0.97832192     0.29790
F1033       F  0.65250775  0.04871017  0.95627554    -0.19610
H1034       H  0.58409180  0.01476510  0.96037997     0.18150
H1035       H  0.64411159  0.12199576  0.79306845     0.18160
F1036       F  0.57552174  0.08621652  0.79963201    -0.19600
C1037       C  0.92359851  0.36462924  0.77112722    -0.21030
C1038       C  0.93967178  0.34941645  0.74982447    -0.09080
C1039       C  0.97025642  0.37186031  0.97839608     0.29780
C1040       C  0.48434776  0.40881189  0.97826890    -0.21030
C1041       C  0.96837209  0.42419175  0.74960654    -0.09090
C1042       C  0.93770574  0.40161919  0.77108862     0.29790
F1043       F  0.92192292  0.41527963  0.79296988    -0.19610
H1044       H  0.89995236  0.34777166  0.78775729     0.18150
H1045       H  0.50781837  0.42545327  0.96131595     0.18160
F1046       F  0.48704782  0.35814255  0.95834007    -0.19600
C1047       C  0.92368090  0.51604353  0.76999110    -0.21030
C1048       C  0.95495105  0.03179046  0.99801932    -0.09080
C1049       C  0.96337712  0.06200763  0.97593000     0.29780
C1050       C  0.94108521  0.07611728  0.97625838    -0.21030
C1051       C  0.91000884  0.06042151  0.99842687    -0.09090
C1052       C  0.90136669  0.03006974  0.77015473     0.29790
F1053       F  0.87092391  0.51347826  0.79089827    -0.19610
H1054       H  0.91658148  0.49289326  0.78738802     0.18150
H1055       H  0.94822284  0.09952576  0.95928294     0.18160
F1056       F  0.99259091  0.07740886  0.95324932    -0.19600
C1057       C  0.97822382  0.51629137  0.24847419     0.03400
C1058       C  0.96310655  0.97896433  0.99748889    -0.12750
C1059       C  0.98442491  0.96368651  0.99992377     0.00900
C1060       C  0.52140254  0.98629164  0.00232461    -0.11270
C1061       C  0.53717613  0.52365369  0.25216407     0.03390
C1062       C  0.51535593  0.53845360  0.25072521    -0.10690
H1063       H  0.93466003  0.96178187  0.99422452     0.08990
H1064       H  0.53804092  0.97476407  0.00477641     0.06520
H1065       H  0.52731192  0.56723029  0.25120811     0.06360
C1066       C  0.92440666  0.81020051  0.99995022     0.03400
C1067       C  0.91663013  0.79124429  0.21555569    -0.12740
C1068       C  0.90156868  0.75404892  0.21549391     0.00900
C1069       C  0.89479218  0.73577685  0.99989502    -0.11270
C1070       C  0.90088968  0.75410961  0.03432836     0.03390
C1071       C  0.91560425  0.79128031  0.03432772    -0.10690
H1072       H  0.92096435  0.80520514  0.18892015     0.08990
H1073       H  0.88154787  0.70679331  0.99985447     0.06520
H1074       H  0.91977384  0.80533695  0.06099486     0.06360
C1075       C  0.88672859  0.57573875  0.24874356     0.03400
C1076       C  0.87669293  0.58436713  0.21453708    -0.12750
C1077       C  0.85486746  0.59908304  0.21484896     0.00900
C1078       C  0.84305477  0.60526543  0.24940702    -0.11270
C1079       C  0.85444022  0.59861309  0.03366626     0.03390
C1080       C  0.87606875  0.58365832  0.03331434    -0.10690
H1081       H  0.88614402  0.58004492  0.18774132     0.08990
H1082       H  0.82775506  0.61842663  0.24966224     0.06520
H1083       H  0.88566574  0.57946094  0.05984411     0.06360
Fe1084     Fe  0.82298899  0.70402583  0.12560436     1.65780
Fe1085     Fe  0.88435218  0.67750313  0.12436494     1.73250
Fe1086     Fe  0.79515182  0.61450685  0.12507810     1.54420
O1087       O  0.76711865  0.62220731  0.16727788    -0.81400
O1088       O  0.87598919  0.64143216  0.08200907    -0.79710
O1089       O  0.78615427  0.68052336  0.16884024    -0.83910
O1090       O  0.78545025  0.68028201  0.08332051    -0.78760
O1091       O  0.81812111  0.60101495  0.16777008    -0.80540
O1092       O  0.89845873  0.71502195  0.08179463    -0.83280
C1093       C  0.76707930  0.64890465  0.06991071     0.97480
C1094       C  0.76730464  0.64901575  0.18159960     1.04920
O1095       O  0.83416206  0.66533864  0.12499612    -1.12270
O1096       O  0.89872467  0.71474042  0.16752276    -0.74700
O1097       O  0.85940969  0.73264189  0.16719029    -0.78180
O1098       O  0.76742478  0.62216299  0.08320335    -0.78870
C1099       C  0.88626949  0.73316593  0.18081303     0.96390
O1100       O  0.85878320  0.73246517  0.08321838    -0.76830
O1101       O  0.87621445  0.64118065  0.16600673    -0.82020
C1102       C  0.84920438  0.61381469  0.06853239     0.99010
C1103       C  0.84940059  0.61405539  0.18029423     1.04930
O1104       O  0.81811102  0.60050939  0.08209320    -0.77670
C1105       C  0.88573971  0.73323143  0.06903555     1.03230
C1106       C  0.69071597  0.61238558  0.25108924     0.03400
C1107       C  0.70953562  0.62259155  0.03543621    -0.12750
C1108       C  0.74670631  0.64346424  0.03529243     0.00900
C1109       C  0.76514867  0.65447050  0.25084840    -0.11270
C1110       C  0.74685692  0.64340466  0.21651837     0.03390
C1111       C  0.70970755  0.62258367  0.21661863    -0.10690
H1112       H  0.69540806  0.61329993  0.06214539     0.08990
H1113       H  0.79397253  0.66920510  0.25074723     0.06520
H1114       H  0.69572501  0.61407683  0.18989321     0.06360
C1115       C  0.59688810  0.53804183  0.22869319    -0.21030
C1116       C  0.57650326  0.54684642  0.25220781    -0.09080
C1117       C  0.59405044  0.57737168  0.02553939     0.29780
C1118       C  0.63114920  0.59855152  0.02500125    -0.21030
C1119       C  0.65142018  0.58974771  0.25131585    -0.09090
C1120       C  0.63388903  0.55905406  0.22832192     0.29790
F1121       F  0.65250774  0.54871017  0.20627553    -0.19610
H1122       H  0.58409179  0.51476510  0.21037996     0.18150
H1123       H  0.64411158  0.62199576  0.04306845     0.18160
F1124       F  0.57552173  0.58621652  0.04963200    -0.19600
C1125       C  0.92359852  0.86462924  0.02112722    -0.21030
C1126       C  0.93967178  0.84941644  0.99982447    -0.09080
C1127       C  0.97025641  0.87186031  0.22839605     0.29780
C1128       C  0.48434775  0.90881189  0.22826888    -0.21030
C1129       C  0.96837209  0.92419174  0.99960654    -0.09090
C1130       C  0.93770574  0.90161918  0.02108862     0.29790
F1131       F  0.92192293  0.91527962  0.04296989    -0.19610
H1132       H  0.89995237  0.84777165  0.03775729     0.18150
H1133       H  0.50781836  0.92545327  0.21131591     0.18160
F1134       F  0.48704780  0.85814255  0.20834003    -0.19600
C1135       C  0.92368090  0.01604353  0.01999110    -0.21030
C1136       C  0.95495105  0.53179047  0.24801933    -0.09080
C1137       C  0.96337713  0.56200765  0.22593003     0.29780
C1138       C  0.94108522  0.57611730  0.22625841    -0.21030
C1139       C  0.91000884  0.56042151  0.24842687    -0.09090
C1140       C  0.90136671  0.53006976  0.02015477     0.29790
F1141       F  0.87092392  0.01347826  0.04089828    -0.19610
H1142       H  0.91658149  0.99289326  0.03738803     0.18150
H1143       H  0.94822286  0.59952579  0.20928299     0.18160
F1144       F  0.99259094  0.57740890  0.20324938    -0.19600
C1145       C  0.97822382  0.51629138  0.49847418     0.03400
C1146       C  0.96310655  0.97896434  0.24748889    -0.12750
C1147       C  0.98442491  0.96368651  0.24992377     0.00900
C1148       C  0.52140254  0.98629164  0.25232460    -0.11270
C1149       C  0.53717614  0.52365370  0.50216407     0.03390
C1150       C  0.51535594  0.53845361  0.50072520    -0.10690
H1151       H  0.93466003  0.96178187  0.24422453     0.08990
H1152       H  0.53804092  0.97476407  0.25477639     0.06520
H1153       H  0.52731192  0.56723030  0.50120809     0.06360
C1154       C  0.92440666  0.81020051  0.24995021     0.03400
C1155       C  0.91663013  0.79124430  0.46555569    -0.12740
C1156       C  0.90156868  0.75404893  0.46549391     0.00900
C1157       C  0.89479219  0.73577685  0.24989502    -0.11270
C1158       C  0.90088969  0.75410961  0.28432836     0.03390
C1159       C  0.91560426  0.79128031  0.28432771    -0.10690
H1160       H  0.92096435  0.80520514  0.43892015     0.08990
H1161       H  0.88154787  0.70679331  0.24985446     0.06520
H1162       H  0.91977384  0.80533695  0.31099485     0.06360
C1163       C  0.88672859  0.57573875  0.49874356     0.03400
C1164       C  0.87669293  0.58436713  0.46453708    -0.12750
C1165       C  0.85486747  0.59908304  0.46484896     0.00900
C1166       C  0.84305477  0.60526543  0.49940702    -0.11270
C1167       C  0.85444021  0.59861309  0.28366626     0.03390
C1168       C  0.87606875  0.58365831  0.28331435    -0.10690
H1169       H  0.88614402  0.58004492  0.43774131     0.08990
H1170       H  0.82775507  0.61842663  0.49966224     0.06520
H1171       H  0.88566573  0.57946093  0.30984411     0.06360
Fe1172     Fe  0.82298899  0.70402584  0.37560436     1.65780
Fe1173     Fe  0.88435218  0.67750314  0.37436494     1.73250
Fe1174     Fe  0.79515182  0.61450685  0.37507810     1.54420
O1175       O  0.76711865  0.62220732  0.41727788    -0.81400
O1176       O  0.87598919  0.64143216  0.33200907    -0.79710
O1177       O  0.78615428  0.68052337  0.41884024    -0.83910
O1178       O  0.78545026  0.68028201  0.33332051    -0.78760
O1179       O  0.81812111  0.60101496  0.41777008    -0.80540
O1180       O  0.89845873  0.71502195  0.33179462    -0.83280
C1181       C  0.76707930  0.64890465  0.31991071     0.97480
C1182       C  0.76730465  0.64901576  0.43159960     1.04920
O1183       O  0.83416206  0.66533864  0.37499612    -1.12270
O1184       O  0.89872468  0.71474043  0.41752276    -0.74700
O1185       O  0.85940969  0.73264189  0.41719029    -0.78180
O1186       O  0.76742478  0.62216299  0.33320335    -0.78870
C1187       C  0.88626949  0.73316594  0.43081303     0.96390
O1188       O  0.85878321  0.73246518  0.33321838    -0.76830
O1189       O  0.87621446  0.64118066  0.41600673    -0.82020
C1190       C  0.84920438  0.61381469  0.31853239     0.99010
C1191       C  0.84940060  0.61405539  0.43029423     1.04930
O1192       O  0.81811102  0.60050939  0.33209320    -0.77670
C1193       C  0.88573971  0.73323143  0.31903555     1.03230
C1194       C  0.69071597  0.61238559  0.50108924     0.03400
C1195       C  0.70953562  0.62259155  0.28543621    -0.12750
C1196       C  0.74670631  0.64346425  0.28529243     0.00900
C1197       C  0.76514868  0.65447051  0.50084840    -0.11270
C1198       C  0.74685692  0.64340467  0.46651837     0.03390
C1199       C  0.70970755  0.62258368  0.46661863    -0.10690
H1200       H  0.69540806  0.61329992  0.31214539     0.08990
H1201       H  0.79397253  0.66920510  0.50074723     0.06520
H1202       H  0.69572502  0.61407684  0.43989321     0.06360
C1203       C  0.59688811  0.53804184  0.47869319    -0.21030
C1204       C  0.57650327  0.54684643  0.50220780    -0.09080
C1205       C  0.59405044  0.57737167  0.27553940     0.29780
C1206       C  0.63114920  0.59855151  0.27500126    -0.21030
C1207       C  0.65142018  0.58974772  0.50131585    -0.09090
C1208       C  0.63388904  0.55905407  0.47832192     0.29790
F1209       F  0.65250775  0.54871018  0.45627553    -0.19610
H1210       H  0.58409180  0.51476510  0.46037996     0.18150
H1211       H  0.64411159  0.62199574  0.29306846     0.18160
F1212       F  0.57552173  0.58621650  0.29963202    -0.19600
C1213       C  0.92359852  0.86462924  0.27112723    -0.21030
C1214       C  0.93967177  0.84941645  0.24982447    -0.09080
C1215       C  0.97025641  0.87186031  0.47839606     0.29780
C1216       C  0.48434775  0.90881190  0.47826888    -0.21030
C1217       C  0.96837209  0.92419175  0.24960653    -0.09090
C1218       C  0.93770575  0.90161919  0.27108863     0.29790
F1219       F  0.92192294  0.91527963  0.29296991    -0.19610
H1220       H  0.89995238  0.84777165  0.28775731     0.18150
H1221       H  0.50781836  0.92545327  0.46131591     0.18160
F1222       F  0.48704780  0.85814255  0.45834003    -0.19600
C1223       C  0.92368090  0.01604354  0.26999111    -0.21030
C1224       C  0.95495105  0.53179047  0.49801933    -0.09080
C1225       C  0.96337712  0.56200765  0.47593001     0.29780
C1226       C  0.94108522  0.57611729  0.47625839    -0.21030
C1227       C  0.91000884  0.56042151  0.49842687    -0.09090
C1228       C  0.90136669  0.53006974  0.27015473     0.29790
F1229       F  0.87092392  0.01347826  0.29089829    -0.19610
H1230       H  0.91658149  0.99289326  0.28738804     0.18150
H1231       H  0.94822285  0.59952578  0.45928297     0.18160
F1232       F  0.99259093  0.57740888  0.45324935    -0.19600
C1233       C  0.97822382  0.51629138  0.74847418     0.03400
C1234       C  0.96310656  0.97896434  0.49748890    -0.12750
C1235       C  0.98442491  0.96368652  0.49992378     0.00900
C1236       C  0.52140254  0.98629164  0.50232460    -0.11270
C1237       C  0.53717613  0.52365370  0.75216407     0.03390
C1238       C  0.51535594  0.53845361  0.75072521    -0.10690
H1239       H  0.93466003  0.96178188  0.49422453     0.08990
H1240       H  0.53804092  0.97476407  0.50477639     0.06520
H1241       H  0.52731192  0.56723030  0.75120811     0.06360
C1242       C  0.92440666  0.81020051  0.49995021     0.03400
C1243       C  0.91663013  0.79124430  0.71555569    -0.12740
C1244       C  0.90156868  0.75404893  0.71549391     0.00900
C1245       C  0.89479219  0.73577685  0.49989502    -0.11270
C1246       C  0.90088969  0.75410962  0.53432836     0.03390
C1247       C  0.91560426  0.79128032  0.53432772    -0.10690
H1248       H  0.92096435  0.80520515  0.68892015     0.08990
H1249       H  0.88154787  0.70679331  0.49985446     0.06520
H1250       H  0.91977384  0.80533696  0.56099485     0.06360
C1251       C  0.88672859  0.57573875  0.74874356     0.03400
C1252       C  0.87669293  0.58436713  0.71453708    -0.12750
C1253       C  0.85486746  0.59908304  0.71484896     0.00900
C1254       C  0.84305477  0.60526543  0.74940701    -0.11270
C1255       C  0.85444021  0.59861310  0.53366626     0.03390
C1256       C  0.87606875  0.58365832  0.53331435    -0.10690
H1257       H  0.88614402  0.58004492  0.68774131     0.08990
H1258       H  0.82775506  0.61842663  0.74966224     0.06520
H1259       H  0.88566573  0.57946094  0.55984411     0.06360
Fe1260     Fe  0.82298899  0.70402584  0.62560436     1.65780
Fe1261     Fe  0.88435218  0.67750314  0.62436494     1.73250
Fe1262     Fe  0.79515182  0.61450685  0.62507810     1.54420
O1263       O  0.76711865  0.62220732  0.66727788    -0.81400
O1264       O  0.87598919  0.64143217  0.58200907    -0.79710
O1265       O  0.78615428  0.68052337  0.66884024    -0.83910
O1266       O  0.78545026  0.68028202  0.58332051    -0.78760
O1267       O  0.81812111  0.60101496  0.66777008    -0.80540
O1268       O  0.89845873  0.71502195  0.58179462    -0.83280
C1269       C  0.76707930  0.64890466  0.56991071     0.97480
C1270       C  0.76730464  0.64901576  0.68159960     1.04920
O1271       O  0.83416206  0.66533865  0.62499612    -1.12270
O1272       O  0.89872468  0.71474043  0.66752276    -0.74700
O1273       O  0.85940969  0.73264190  0.66719029    -0.78180
O1274       O  0.76742478  0.62216299  0.58320335    -0.78870
C1275       C  0.88626949  0.73316594  0.68081303     0.96390
O1276       O  0.85878320  0.73246518  0.58321838    -0.76830
O1277       O  0.87621445  0.64118066  0.66600673    -0.82020
C1278       C  0.84920438  0.61381469  0.56853239     0.99010
C1279       C  0.84940059  0.61405539  0.68029423     1.04930
O1280       O  0.81811102  0.60050939  0.58209320    -0.77670
C1281       C  0.88573971  0.73323144  0.56903555     1.03230
C1282       C  0.69071597  0.61238558  0.75108924     0.03400
C1283       C  0.70953562  0.62259156  0.53543621    -0.12750
C1284       C  0.74670631  0.64346425  0.53529243     0.00900
C1285       C  0.76514868  0.65447051  0.75084840    -0.11270
C1286       C  0.74685692  0.64340467  0.71651837     0.03390
C1287       C  0.70970755  0.62258368  0.71661863    -0.10690
H1288       H  0.69540806  0.61329993  0.56214539     0.08990
H1289       H  0.79397253  0.66920510  0.75074723     0.06520
H1290       H  0.69572501  0.61407684  0.68989321     0.06360
C1291       C  0.59688811  0.53804183  0.72869320    -0.21030
C1292       C  0.57650327  0.54684643  0.75220781    -0.09080
C1293       C  0.59405044  0.57737168  0.52553939     0.29780
C1294       C  0.63114920  0.59855152  0.52500125    -0.21030
C1295       C  0.65142018  0.58974772  0.75131586    -0.09090
C1296       C  0.63388904  0.55905407  0.72832193     0.29790
F1297       F  0.65250774  0.54871017  0.70627554    -0.19610
H1298       H  0.58409179  0.51476510  0.71037997     0.18150
H1299       H  0.64411159  0.62199576  0.54306845     0.18160
F1300       F  0.57552174  0.58621652  0.54963201    -0.19600
C1301       C  0.92359853  0.86462925  0.52112723    -0.21030
C1302       C  0.93967178  0.84941645  0.49982447    -0.09080
C1303       C  0.97025642  0.87186031  0.72839607     0.29780
C1304       C  0.48434776  0.90881190  0.72826890    -0.21030
C1305       C  0.96837209  0.92419175  0.49960654    -0.09090
C1306       C  0.93770575  0.90161919  0.52108864     0.29790
F1307       F  0.92192295  0.91527963  0.54296992    -0.19610
H1308       H  0.89995238  0.84777166  0.53775732     0.18150
H1309       H  0.50781838  0.92545327  0.71131595     0.18160
F1310       F  0.48704782  0.85814256  0.70834007    -0.19600
C1311       C  0.92368091  0.01604354  0.51999112    -0.21030
C1312       C  0.95495104  0.53179047  0.74801933    -0.09080
C1313       C  0.96337712  0.56200764  0.72593001     0.29780
C1314       C  0.94108521  0.57611729  0.72625838    -0.21030
C1315       C  0.91000884  0.56042151  0.74842687    -0.09090
C1316       C  0.90136670  0.53006975  0.52015474     0.29790
F1317       F  0.87092392  0.01347827  0.54089830    -0.19610
H1318       H  0.91658150  0.99289327  0.53738805     0.18150
H1319       H  0.94822285  0.59952577  0.70928296     0.18160
F1320       F  0.99259092  0.57740888  0.70324934    -0.19600
C1321       C  0.97822381  0.51629137  0.99847418     0.03400
C1322       C  0.96310656  0.97896434  0.74748888    -0.12750
C1323       C  0.98442491  0.96368652  0.74992377     0.00900
C1324       C  0.52140254  0.98629164  0.75232461    -0.11270
C1325       C  0.53717613  0.52365369  0.00216407     0.03390
C1326       C  0.51535593  0.53845360  0.00072520    -0.10690
H1327       H  0.93466004  0.96178188  0.74422450     0.08990
H1328       H  0.53804092  0.97476407  0.75477641     0.06520
H1329       H  0.52731191  0.56723029  0.00120809     0.06360
C1330       C  0.92440666  0.81020051  0.74995022     0.03400
C1331       C  0.91663013  0.79124429  0.96555570    -0.12740
C1332       C  0.90156868  0.75404892  0.96549391     0.00900
C1333       C  0.89479219  0.73577685  0.74989502    -0.11270
C1334       C  0.90088968  0.75410962  0.78432836     0.03390
C1335       C  0.91560425  0.79128032  0.78432772    -0.10690
H1336       H  0.92096435  0.80520514  0.93892015     0.08990
H1337       H  0.88154787  0.70679331  0.74985447     0.06520
H1338       H  0.91977383  0.80533696  0.81099485     0.06360
C1339       C  0.88672859  0.57573875  0.99874356     0.03400
C1340       C  0.87669293  0.58436713  0.96453708    -0.12750
C1341       C  0.85486746  0.59908304  0.96484896     0.00900
C1342       C  0.84305477  0.60526543  0.99940701    -0.11270
C1343       C  0.85444021  0.59861310  0.78366626     0.03390
C1344       C  0.87606875  0.58365832  0.78331434    -0.10690
H1345       H  0.88614401  0.58004491  0.93774131     0.08990
H1346       H  0.82775506  0.61842663  0.99966224     0.06520
H1347       H  0.88566573  0.57946094  0.80984411     0.06360
Fe1348     Fe  0.82298899  0.70402584  0.87560437     1.65780
Fe1349     Fe  0.88435218  0.67750314  0.87436494     1.73250
Fe1350     Fe  0.79515182  0.61450685  0.87507810     1.54420
O1351       O  0.76711865  0.62220732  0.91727788    -0.81400
O1352       O  0.87598919  0.64143216  0.83200907    -0.79710
O1353       O  0.78615427  0.68052337  0.91884024    -0.83910
O1354       O  0.78545026  0.68028202  0.83332051    -0.78760
O1355       O  0.81812111  0.60101496  0.91777007    -0.80540
O1356       O  0.89845873  0.71502195  0.83179462    -0.83280
C1357       C  0.76707930  0.64890466  0.81991071     0.97480
C1358       C  0.76730464  0.64901576  0.93159960     1.04920
O1359       O  0.83416206  0.66533864  0.87499612    -1.12270
O1360       O  0.89872468  0.71474043  0.91752276    -0.74700
O1361       O  0.85940969  0.73264189  0.91719029    -0.78180
O1362       O  0.76742478  0.62216299  0.83320335    -0.78870
C1363       C  0.88626949  0.73316594  0.93081303     0.96390
O1364       O  0.85878321  0.73246518  0.83321839    -0.76830
O1365       O  0.87621445  0.64118066  0.91600673    -0.82020
C1366       C  0.84920438  0.61381469  0.81853239     0.99010
C1367       C  0.84940059  0.61405539  0.93029423     1.04930
O1368       O  0.81811102  0.60050939  0.83209320    -0.77670
C1369       C  0.88573971  0.73323144  0.81903555     1.03230
C1370       C  0.69071597  0.61238558  0.00108924     0.03400
C1371       C  0.70953562  0.62259156  0.78543621    -0.12750
C1372       C  0.74670631  0.64346425  0.78529243     0.00900
C1373       C  0.76514867  0.65447050  0.00084840    -0.11270
C1374       C  0.74685692  0.64340466  0.96651837     0.03390
C1375       C  0.70970755  0.62258367  0.96661863    -0.10690
H1376       H  0.69540806  0.61329993  0.81214539     0.08990
H1377       H  0.79397253  0.66920510  0.00074723     0.06520
H1378       H  0.69572501  0.61407683  0.93989321     0.06360
C1379       C  0.59688810  0.53804183  0.97869319    -0.21030
C1380       C  0.57650326  0.54684643  0.00220780    -0.09080
C1381       C  0.59405045  0.57737168  0.77553940     0.29780
C1382       C  0.63114920  0.59855152  0.77500126    -0.21030
C1383       C  0.65142018  0.58974772  0.00131585    -0.09090
C1384       C  0.63388903  0.55905406  0.97832192     0.29790
F1385       F  0.65250774  0.54871016  0.95627554    -0.19610
H1386       H  0.58409179  0.51476509  0.96037997     0.18150
H1387       H  0.64411159  0.62199576  0.79306845     0.18160
F1388       F  0.57552174  0.58621652  0.79963202    -0.19600
C1389       C  0.92359851  0.86462924  0.77112721    -0.21030
C1390       C  0.93967178  0.84941645  0.74982447    -0.09080
C1391       C  0.97025642  0.87186031  0.97839607     0.29780
C1392       C  0.48434776  0.90881189  0.97826890    -0.21030
C1393       C  0.96837209  0.92419175  0.74960653    -0.09090
C1394       C  0.93770574  0.90161919  0.77108861     0.29790
F1395       F  0.92192292  0.91527963  0.79296987    -0.19610
H1396       H  0.89995236  0.84777166  0.78775728     0.18150
H1397       H  0.50781838  0.92545327  0.96131594     0.18160
F1398       F  0.48704782  0.85814255  0.95834007    -0.19600
C1399       C  0.92368089  0.01604353  0.76999108    -0.21030
C1400       C  0.95495104  0.53179046  0.99801933    -0.09080
C1401       C  0.96337710  0.56200762  0.97592998     0.29780
C1402       C  0.94108520  0.57611727  0.97625836    -0.21030
C1403       C  0.91000884  0.56042151  0.99842687    -0.09090
C1404       C  0.90136670  0.53006975  0.77015474     0.29790
F1405       F  0.87092389  0.01347824  0.79089824    -0.19610
H1406       H  0.91658147  0.99289324  0.78738799     0.18150
H1407       H  0.94822282  0.59952574  0.95928291     0.18160
F1408       F  0.99259089  0.57740883  0.95324929    -0.19600
loop_ 
_geom_bond_atom_site_label_1 
_geom_bond_atom_site_label_2 
_geom_bond_distance 
_geom_bond_site_symmetry_2 
_ccdc_geom_bond_type 
C1           C80   1.487       .  S
C1          C442   1.406   1_545  A
C1          C710   1.407       .  A
C2            C3   1.404       .  A
C2          C617   1.406       .  A
C2            H7   1.083       .  S
C3           C73   1.487       .  S
C3          C708   1.403   1_556  A
C4          C707   1.403   1_454  A
C4          C621   1.404       .  A
C4            H8   1.083       .  S
C5           C60   1.486       .  S
C5            C6   1.405       .  A
C5          C444   1.404   1_545  A
C6          C705   1.407   1_455  A
C6            H9   1.082       .  S
C10          C70   1.481       .  S
C10          C15   1.407   1_556  A
C10         C275   1.406       .  A
C11          C12   1.401       .  A
C11          C98   1.406       .  A
C11          H16   1.084       .  S
C12          C43   1.466       .  S
C12         C101   1.400       .  A
C13          C14   1.400   1_556  A
C13         C276   1.400       .  A
C13          H17   1.085       .  S
C14          C49   1.466       .  S
C14          C15   1.402       .  A
C15          H18   1.084       .  S
C19          C83   1.481       .  S
C19          C20   1.407       .  A
C19         C112   1.407       .  A
C20          C21   1.401       .  A
C20          H25   1.084       .  S
C21          C47   1.465       .  S
C21          C22   1.400       .  A
C22         C111   1.400       .  A
C22          H26   1.085       .  S
C23          C46   1.466       .  S
C23          C24   1.401       .  A
C23         C286   1.400   1_554  A
C24         C283   1.407   1_554  A
C24          H27   1.084       .  S
Fe28         O44   2.056       .  S
Fe28         O34   2.069       .  S
Fe28         O41   2.057       .  S
Fe28         O33   2.067       .  S
Fe28         O39   1.984       .  S
Fe29         O32   2.056       .  S
Fe29         O36   2.071       .  S
Fe29         O40   2.070       .  S
Fe29         O45   2.058       .  S
Fe29         O39   1.984       .  S
Fe30         O48   2.071       .  S
Fe30         O35   2.069       .  S
Fe30         O42   2.057       .  S
Fe30         O31   2.059       .  S
Fe30         O39   1.984       .  S
O31          C38   1.267       .  A
O32          C46   1.266       .  A
O33          C38   1.267       .  A
O34          C37   1.268       .  A
O35          C47   1.268       .  A
O36          C49   1.269       .  A
C37          C52   1.465       .  S
C37          O42   1.267       .  A
C38          C54   1.465       .  S
O40          C43   1.268       .  A
O41          C43   1.266       .  A
O44          C49   1.266       .  A
O45          C47   1.267       .  A
C46          O48   1.268       .  A
C50          C63   1.483       .  S
C50          C55   1.408       .  A
C50         C139   1.408       .  A
C51          C52   1.401       .  A
C51         C314   1.408       .  A
C51          H56   1.084       .  S
C52         C317   1.399       .  A
C53          C54   1.399       .  A
C53         C140   1.399       .  A
C53          H57   1.085       .  S
C54          C55   1.400       .  A
C55          H58   1.084       .  S
C59          C60   1.406       .  A
C59          C64   1.395       .  A
C59          H66   1.083       .  S
C60         C149   1.408       .  A
C61          C62   1.400       .  A
C61         C324   1.408       .  A
C61          F68   1.357       .  S
C62         C327   1.405       .  A
C62          H67   1.084       .  S
C63          C64   1.406       .  A
C63         C150   1.405       .  A
C64          F65   1.357       .  S
C69          C70   1.404   1_554  A
C69          C74   1.398       .  A
C69          H76   1.083       .  S
C70         C335   1.405       .  A
C71         C158   1.405       .  A
C71         C776   1.397       .  A
C71         F782   1.358       .  S
C72         C775   1.397       .  A
C72         C865   1.407       .  A
C72          H77   1.083   1_655  S
C73          C74   1.409   1_556  A
C73        C1040   1.407       .  A
C74          F75   1.357       .  S
F78         C775   1.358       .  S
C79         C696   1.407   1_554  A
C79         C436   1.396       .  A
C79          H86   1.083       .  S
C80          C81   1.409       .  A
C80         C519   1.407       .  A
C81          C82   1.398       .  A
C81          F88   1.357       .  S
C82          C83   1.404       .  A
C82          H87   1.084       .  S
C83         C172   1.405       .  A
C84         C431   1.396       .  A
C84         C347   1.405   1_554  A
C84         F437   1.358       .  S
F85         C436   1.358       .  S
C89         C168   1.487       .  S
C89         C530   1.406   1_545  A
C89         C798   1.407       .  A
C90         C353   1.406       .  A
C90          C91   1.404       .  A
C90          H95   1.083       .  S
C91         C161   1.487       .  S
C91         C796   1.403       .  A
C92         C795   1.403   1_455  A
C92         C357   1.404       .  A
C92          H96   1.083       .  S
C93         C148   1.486       .  S
C93         C532   1.404   1_545  A
C93          C94   1.405       .  A
C94         C793   1.407   1_455  A
C94          H97   1.082       .  S
C98         C158   1.481       .  S
C98         C103   1.407       .  A
C99         C186   1.406       .  A
C99         C100   1.401       .  A
C99         H104   1.084       .  S
C100        C131   1.466       .  S
C100        C189   1.400       .  A
C101        C102   1.400       .  A
C101        H105   1.085       .  S
C102        C137   1.466       .  S
C102        C103   1.402       .  A
C103        H106   1.084       .  S
C107        C171   1.481       .  S
C107        C108   1.407       .  A
C107        C200   1.407       .  A
C108        C109   1.401       .  A
C108        H113   1.084       .  S
C109        C135   1.465       .  S
C109        C110   1.400       .  A
C110        C199   1.400       .  A
C110        H114   1.085       .  S
C111        C134   1.466       .  S
C111        C112   1.401       .  A
C112        H115   1.084       .  S
Fe116       O132   2.056       .  S
Fe116       O122   2.069       .  S
Fe116       O129   2.057       .  S
Fe116       O121   2.067       .  S
Fe116       O127   1.984       .  S
Fe117       O120   2.056       .  S
Fe117       O124   2.071       .  S
Fe117       O128   2.070       .  S
Fe117       O133   2.058       .  S
Fe117       O127   1.984       .  S
Fe118       O136   2.071       .  S
Fe118       O123   2.069       .  S
Fe118       O130   2.057       .  S
Fe118       O119   2.059       .  S
Fe118       O127   1.984       .  S
O119        C126   1.267       .  A
O120        C134   1.266       .  A
O121        C126   1.267       .  A
O122        C125   1.268       .  A
O123        C135   1.268       .  A
O124        C137   1.269       .  A
C125        C140   1.465       .  S
C125        O130   1.267       .  A
C126        C142   1.465       .  S
O128        C131   1.268       .  A
O129        C131   1.266       .  A
O132        C137   1.266       .  A
O133        C135   1.267       .  A
C134        O136   1.268       .  A
C138        C151   1.483       .  S
C138        C227   1.408       .  A
C138        C143   1.408       .  A
C139        C140   1.401       .  A
C139        H144   1.084       .  S
C141        C228   1.399       .  A
C141        C142   1.399       .  A
C141        H145   1.085       .  S
C142        C143   1.400       .  A
C143        H146   1.084       .  S
C147        C148   1.406       .  A
C147        C152   1.395       .  A
C147        H154   1.083       .  S
C148        C237   1.408       .  A
C149        C150   1.400       .  A
C149        F156   1.357       .  S
C150        H155   1.084       .  S
C151        C238   1.405       .  A
C151        C152   1.406       .  A
C152        F153   1.357       .  S
C157        C158   1.404       .  A
C157        C162   1.398       .  A
C157        H164   1.083       .  S
C159        C246   1.405       .  A
C159        C864   1.397       .  A
C159        F870   1.358       .  S
C160        C863   1.397       .  A
C160        C953   1.407       .  A
C160        H165   1.083   1_655  S
C161        C776   1.407       .  A
C161        C162   1.409       .  A
C162        F163   1.357       .  S
F166        C863   1.358       .  S
C167        C432   1.407       .  A
C167        C524   1.396       .  A
C167        H174   1.083       .  S
C168        C607   1.407       .  A
C168        C169   1.409       .  A
C169        C170   1.398       .  A
C169        F176   1.357       .  S
C170        C171   1.404       .  A
C170        H175   1.084       .  S
C171        C260   1.405       .  A
C172        C519   1.396       .  A
C172        F525   1.358       .  S
F173        C524   1.358       .  S
C177        C256   1.487       .  S
C177        C618   1.406   1_545  A
C177        C886   1.407       .  A
C178        C441   1.406       .  A
C178        C179   1.404       .  A
C178        H183   1.083       .  S
C179        C249   1.487       .  S
C179        C884   1.403       .  A
C180        C883   1.403   1_455  A
C180        C445   1.404       .  A
C180        H184   1.083       .  S
C181        C236   1.486       .  S
C181        C620   1.404   1_545  A
C181        C182   1.405       .  A
C182        C881   1.407   1_455  A
C182        H185   1.082       .  S
C186        C246   1.481       .  S
C186        C191   1.407       .  A
C187        C274   1.406       .  A
C187        C188   1.401       .  A
C187        H192   1.084       .  S
C188        C219   1.466       .  S
C188        C277   1.400       .  A
C189        C190   1.400       .  A
C189        H193   1.085       .  S
C190        C225   1.466       .  S
C190        C191   1.402       .  A
C191        H194   1.084       .  S
C195        C259   1.481       .  S
C195        C196   1.407       .  A
C195        C288   1.407       .  A
C196        C197   1.401       .  A
C196        H201   1.084       .  S
C197        C223   1.465       .  S
C197        C198   1.400       .  A
C198        C287   1.400       .  A
C198        H202   1.085       .  S
C199        C222   1.466       .  S
C199        C200   1.401       .  A
C200        H203   1.084       .  S
Fe204       O220   2.056       .  S
Fe204       O210   2.069       .  S
Fe204       O217   2.057       .  S
Fe204       O209   2.067       .  S
Fe204       O215   1.984       .  S
Fe205       O208   2.056       .  S
Fe205       O212   2.071       .  S
Fe205       O216   2.070       .  S
Fe205       O221   2.058       .  S
Fe205       O215   1.984       .  S
Fe206       O224   2.071       .  S
Fe206       O211   2.069       .  S
Fe206       O218   2.057       .  S
Fe206       O207   2.059       .  S
Fe206       O215   1.984       .  S
O207        C214   1.267       .  A
O208        C222   1.266       .  A
O209        C214   1.267       .  A
O210        C213   1.268       .  A
O211        C223   1.268       .  A
O212        C225   1.269       .  A
C213        C228   1.465       .  S
C213        O218   1.267       .  A
C214        C230   1.465       .  S
O216        C219   1.268       .  A
O217        C219   1.266       .  A
O220        C225   1.266       .  A
O221        C223   1.267       .  A
C222        O224   1.268       .  A
C226        C239   1.483       .  S
C226        C315   1.408       .  A
C226        C231   1.408       .  A
C227        C228   1.401       .  A
C227        H232   1.084       .  S
C229        C316   1.399       .  A
C229        C230   1.399       .  A
C229        H233   1.085       .  S
C230        C231   1.400       .  A
C231        H234   1.084       .  S
C235        C236   1.406       .  A
C235        C240   1.395       .  A
C235        H242   1.083       .  S
C236        C325   1.408       .  A
C237        C238   1.400       .  A
C237        F244   1.357       .  S
C238        H243   1.084       .  S
C239        C326   1.405       .  A
C239        C240   1.406       .  A
C240        F241   1.357       .  S
C245        C246   1.404       .  A
C245        C250   1.398       .  A
C245        H252   1.083       .  S
C247        C334   1.405       .  A
C247        C952   1.397       .  A
C247        F958   1.358       .  S
C248        C951   1.397       .  A
C248       C1041   1.407       .  A
C248        H253   1.083   1_655  S
C249        C864   1.407       .  A
C249        C250   1.409       .  A
C250        F251   1.357       .  S
F254        C951   1.358       .  S
C255        C520   1.407       .  A
C255        C612   1.396       .  A
C255        H262   1.083       .  S
C256        C695   1.407       .  A
C256        C257   1.409       .  A
C257        C258   1.398       .  A
C257        F264   1.357       .  S
C258        C259   1.404       .  A
C258        H263   1.084       .  S
C259        C348   1.405       .  A
C260        C607   1.396       .  A
C260        F613   1.358       .  S
F261        C612   1.358       .  S
C265        C344   1.487       .  S
C265        C354   1.406   1_545  A
C265        C974   1.407   1_556  A
C266        C529   1.406       .  A
C266        C267   1.404       .  A
C266        H271   1.083       .  S
C267        C337   1.487       .  S
C267        C972   1.403       .  A
C268        C971   1.403   1_455  A
C268        C533   1.404       .  A
C268        H272   1.083       .  S
C269        C324   1.486       .  S
C269        C356   1.404   1_545  A
C269        C270   1.405       .  A
C270        C969   1.407   1_454  A
C270        H273   1.082       .  S
C274        C334   1.481       .  S
C274        C279   1.407       .  A
C275        C276   1.401       .  A
C275        H280   1.084       .  S
C276        C307   1.466       .  S
C277        C278   1.400       .  A
C277        H281   1.085       .  S
C278        C313   1.466       .  S
C278        C279   1.402       .  A
C279        H282   1.084       .  S
C283        C347   1.481       .  S
C283        C284   1.407       .  A
C284        C285   1.401       .  A
C284        H289   1.084       .  S
C285        C311   1.465       .  S
C285        C286   1.400       .  A
C286        H290   1.085       .  S
C287        C310   1.466       .  S
C287        C288   1.401       .  A
C288        H291   1.084       .  S
Fe292       O308   2.056       .  S
Fe292       O298   2.069       .  S
Fe292       O305   2.057       .  S
Fe292       O297   2.067       .  S
Fe292       O303   1.984       .  S
Fe293       O296   2.056       .  S
Fe293       O300   2.071       .  S
Fe293       O304   2.070       .  S
Fe293       O309   2.058       .  S
Fe293       O303   1.984       .  S
Fe294       O312   2.071       .  S
Fe294       O299   2.069       .  S
Fe294       O306   2.057       .  S
Fe294       O295   2.059       .  S
Fe294       O303   1.984       .  S
O295        C302   1.267       .  A
O296        C310   1.266       .  A
O297        C302   1.267       .  A
O298        C301   1.268       .  A
O299        C311   1.268       .  A
O300        C313   1.269       .  A
C301        C316   1.465       .  S
C301        O306   1.267       .  A
C302        C318   1.465       .  S
O304        C307   1.268       .  A
O305        C307   1.266       .  A
O308        C313   1.266       .  A
O309        C311   1.267       .  A
C310        O312   1.268       .  A
C314        C327   1.483       .  S
C314        C319   1.408   1_554  A
C315        C316   1.401       .  A
C315        H320   1.084       .  S
C317        C318   1.399   1_554  A
C317        H321   1.085       .  S
C318        C319   1.400       .  A
C319        H322   1.084       .  S
C323        C324   1.406   1_556  A
C323        C328   1.395       .  A
C323        H330   1.083       .  S
C325        C326   1.400       .  A
C325        F332   1.357       .  S
C326        H331   1.084       .  S
C327        C328   1.406   1_554  A
C328        F329   1.357       .  S
C333        C334   1.404       .  A
C333        C338   1.398       .  A
C333        H340   1.083       .  S
C335       C1040   1.397       .  A
C335       F1046   1.358       .  S
C336       C1039   1.397       .  A
C336        C777   1.407       .  A
C336        H341   1.083   1_655  S
C337        C952   1.407       .  A
C337        C338   1.409       .  A
C338        F339   1.357       .  S
F342       C1039   1.358       .  S
C343        C608   1.407       .  A
C343        C700   1.396       .  A
C343        H350   1.083       .  S
C344        C431   1.407   1_556  A
C344        C345   1.409       .  A
C345        C346   1.398       .  A
C345        F352   1.357       .  S
C346        C347   1.404       .  A
C346        H351   1.084       .  S
C348        C695   1.396       .  A
C348        F701   1.358       .  S
F349        C700   1.358       .  S
C353        C432   1.487       .  S
C353       C1062   1.407       .  A
C354        C355   1.404       .  A
C354        H359   1.083       .  S
C355        C425   1.487       .  S
C355       C1060   1.403   1_556  A
C356       C1059   1.403   1_454  A
C356        H360   1.083       .  S
C357        C412   1.486       .  S
C357        C358   1.405       .  A
C358       C1057   1.407   1_455  A
C358        H361   1.082       .  S
C362        C422   1.481       .  S
C362        C627   1.406       .  A
C362        C367   1.407   1_556  A
C363        C450   1.406       .  A
C363        C364   1.401       .  A
C363        H368   1.084       .  S
C364        C395   1.466       .  S
C364        C453   1.400       .  A
C365        C628   1.400       .  A
C365        C366   1.400   1_556  A
C365        H369   1.085       .  S
C366        C401   1.466       .  S
C366        C367   1.402       .  A
C367        H370   1.084       .  S
C371        C435   1.481       .  S
C371        C372   1.407       .  A
C371        C464   1.407       .  A
C372        C373   1.401       .  A
C372        H377   1.084       .  S
C373        C399   1.465       .  S
C373        C374   1.400       .  A
C374        C463   1.400       .  A
C374        H378   1.085       .  S
C375        C398   1.466       .  S
C375        C638   1.400   1_554  A
C375        C376   1.401       .  A
C376        C635   1.407   1_554  A
C376        H379   1.084       .  S
Fe380       O396   2.056       .  S
Fe380       O386   2.069       .  S
Fe380       O393   2.057       .  S
Fe380       O385   2.067       .  S
Fe380       O391   1.984       .  S
Fe381       O384   2.056       .  S
Fe381       O388   2.071       .  S
Fe381       O392   2.070       .  S
Fe381       O397   2.058       .  S
Fe381       O391   1.984       .  S
Fe382       O400   2.071       .  S
Fe382       O387   2.069       .  S
Fe382       O394   2.057       .  S
Fe382       O383   2.059       .  S
Fe382       O391   1.984       .  S
O383        C390   1.267       .  A
O384        C398   1.266       .  A
O385        C390   1.267       .  A
O386        C389   1.268       .  A
O387        C399   1.268       .  A
O388        C401   1.269       .  A
C389        C404   1.465       .  S
C389        O394   1.267       .  A
C390        C406   1.465       .  S
O392        C395   1.268       .  A
O393        C395   1.266       .  A
O396        C401   1.266       .  A
O397        C399   1.267       .  A
C398        O400   1.268       .  A
C402        C415   1.483       .  S
C402        C491   1.408       .  A
C402        C407   1.408       .  A
C403        C666   1.408       .  A
C403        C404   1.401       .  A
C403        H408   1.084       .  S
C404        C669   1.399       .  A
C405        C492   1.399       .  A
C405        C406   1.399       .  A
C405        H409   1.085       .  S
C406        C407   1.400       .  A
C407        H410   1.084       .  S
C411        C412   1.406       .  A
C411        C416   1.395       .  A
C411        H418   1.083       .  S
C412        C501   1.408       .  A
C413        C676   1.408       .  A
C413        C414   1.400       .  A
C413        F420   1.357       .  S
C414        C679   1.405       .  A
C414        H419   1.084       .  S
C415        C502   1.405       .  A
C415        C416   1.406       .  A
C416        F417   1.357       .  S
C421        C422   1.404   1_554  A
C421        C426   1.398       .  A
C421        H428   1.083       .  S
C422        C687   1.405       .  A
C423        C510   1.405       .  A
C423       C1128   1.397       .  A
C423       F1134   1.358       .  S
C424       C1127   1.397       .  A
C424       C1217   1.407       .  A
C424        H429   1.083   1_655  S
C425       C1392   1.407       .  A
C425        C426   1.409   1_556  A
C426        F427   1.357       .  S
F430       C1127   1.358       .  S
C431        H438   1.083   1_545  S
C432        C433   1.409       .  A
C433        C434   1.398       .  A
C433        F440   1.357       .  S
C434        C435   1.404       .  A
C434        H439   1.084       .  S
C435        C524   1.405       .  A
C436        C699   1.405   1_554  A
C441        C520   1.487       .  S
C441       C1150   1.407       .  A
C442        C443   1.404       .  A
C442        H447   1.083       .  S
C443        C513   1.487       .  S
C443       C1148   1.403       .  A
C444       C1147   1.403   1_455  A
C444        H448   1.083       .  S
C445        C500   1.486       .  S
C445        C446   1.405       .  A
C446       C1145   1.407   1_455  A
C446        H449   1.082       .  S
C450        C510   1.481       .  S
C450        C455   1.407       .  A
C451        C538   1.406       .  A
C451        C452   1.401       .  A
C451        H456   1.084       .  S
C452        C483   1.466       .  S
C452        C541   1.400       .  A
C453        C454   1.400       .  A
C453        H457   1.085       .  S
C454        C489   1.466       .  S
C454        C455   1.402       .  A
C455        H458   1.084       .  S
C459        C523   1.481       .  S
C459        C460   1.407       .  A
C459        C552   1.407       .  A
C460        C461   1.401       .  A
C460        H465   1.084       .  S
C461        C487   1.465       .  S
C461        C462   1.400       .  A
C462        C551   1.400       .  A
C462        H466   1.085       .  S
C463        C486   1.466       .  S
C463        C464   1.401       .  A
C464        H467   1.084       .  S
Fe468       O484   2.056       .  S
Fe468       O474   2.069       .  S
Fe468       O481   2.057       .  S
Fe468       O473   2.067       .  S
Fe468       O479   1.984       .  S
Fe469       O472   2.056       .  S
Fe469       O476   2.071       .  S
Fe469       O480   2.070       .  S
Fe469       O485   2.058       .  S
Fe469       O479   1.984       .  S
Fe470       O488   2.071       .  S
Fe470       O475   2.069       .  S
Fe470       O482   2.057       .  S
Fe470       O471   2.059       .  S
Fe470       O479   1.984       .  S
O471        C478   1.267       .  A
O472        C486   1.266       .  A
O473        C478   1.267       .  A
O474        C477   1.268       .  A
O475        C487   1.268       .  A
O476        C489   1.269       .  A
C477        C492   1.465       .  S
C477        O482   1.267       .  A
C478        C494   1.465       .  S
O480        C483   1.268       .  A
O481        C483   1.266       .  A
O484        C489   1.266       .  A
O485        C487   1.267       .  A
C486        O488   1.268       .  A
C490        C503   1.483       .  S
C490        C579   1.408       .  A
C490        C495   1.408       .  A
C491        C492   1.401       .  A
C491        H496   1.084       .  S
C493        C580   1.399       .  A
C493        C494   1.399       .  A
C493        H497   1.085       .  S
C494        C495   1.400       .  A
C495        H498   1.084       .  S
C499        C500   1.406       .  A
C499        C504   1.395       .  A
C499        H506   1.083       .  S
C500        C589   1.408       .  A
C501        C502   1.400       .  A
C501        F508   1.357       .  S
C502        H507   1.084       .  S
C503        C590   1.405       .  A
C503        C504   1.406       .  A
C504        F505   1.357       .  S
C509        C510   1.404       .  A
C509        C514   1.398       .  A
C509        H516   1.083       .  S
C511        C598   1.405       .  A
C511       C1216   1.397       .  A
C511       F1222   1.358       .  S
C512       C1215   1.397       .  A
C512       C1305   1.407       .  A
C512        H517   1.083   1_655  S
C513       C1128   1.407       .  A
C513        C514   1.409       .  A
C514        F515   1.357       .  S
F518       C1215   1.358       .  S
C519        H526   1.083   1_545  S
C520        C521   1.409       .  A
C521        C522   1.398       .  A
C521        F528   1.357       .  S
C522        C523   1.404       .  A
C522        H527   1.084       .  S
C523        C612   1.405       .  A
C529        C608   1.487       .  S
C529       C1238   1.407       .  A
C530        C531   1.404       .  A
C530        H535   1.083       .  S
C531        C601   1.487       .  S
C531       C1236   1.403       .  A
C532       C1235   1.403   1_455  A
C532        H536   1.083       .  S
C533        C588   1.486       .  S
C533        C534   1.405       .  A
C534       C1233   1.407   1_455  A
C534        H537   1.082       .  S
C538        C598   1.481       .  S
C538        C543   1.407       .  A
C539        C626   1.406       .  A
C539        C540   1.401       .  A
C539        H544   1.084       .  S
C540        C571   1.466       .  S
C540        C629   1.400       .  A
C541        C542   1.400       .  A
C541        H545   1.085       .  S
C542        C577   1.466       .  S
C542        C543   1.402       .  A
C543        H546   1.084       .  S
C547        C611   1.481       .  S
C547        C548   1.407       .  A
C547        C640   1.407       .  A
C548        C549   1.401       .  A
C548        H553   1.084       .  S
C549        C575   1.465       .  S
C549        C550   1.400       .  A
C550        C639   1.400       .  A
C550        H554   1.085       .  S
C551        C574   1.466       .  S
C551        C552   1.401       .  A
C552        H555   1.084       .  S
Fe556       O572   2.056       .  S
Fe556       O562   2.069       .  S
Fe556       O569   2.057       .  S
Fe556       O561   2.067       .  S
Fe556       O567   1.984       .  S
Fe557       O560   2.056       .  S
Fe557       O564   2.071       .  S
Fe557       O568   2.070       .  S
Fe557       O573   2.058       .  S
Fe557       O567   1.984       .  S
Fe558       O576   2.071       .  S
Fe558       O563   2.069       .  S
Fe558       O570   2.057       .  S
Fe558       O559   2.059       .  S
Fe558       O567   1.984       .  S
O559        C566   1.267       .  A
O560        C574   1.266       .  A
O561        C566   1.267       .  A
O562        C565   1.268       .  A
O563        C575   1.268       .  A
O564        C577   1.269       .  A
C565        C580   1.465       .  S
C565        O570   1.267       .  A
C566        C582   1.465       .  S
O568        C571   1.268       .  A
O569        C571   1.266       .  A
O572        C577   1.266       .  A
O573        C575   1.267       .  A
C574        O576   1.268       .  A
C578        C591   1.483       .  S
C578        C667   1.408       .  A
C578        C583   1.408       .  A
C579        C580   1.401       .  A
C579        H584   1.084       .  S
C581        C668   1.399       .  A
C581        C582   1.399       .  A
C581        H585   1.085       .  S
C582        C583   1.400       .  A
C583        H586   1.084       .  S
C587        C588   1.406       .  A
C587        C592   1.395       .  A
C587        H594   1.083       .  S
C588        C677   1.408       .  A
C589        C590   1.400       .  A
C589        F596   1.357       .  S
C590        H595   1.084       .  S
C591        C678   1.405       .  A
C591        C592   1.406       .  A
C592        F593   1.357       .  S
C597        C598   1.404       .  A
C597        C602   1.398       .  A
C597        H604   1.083       .  S
C599        C686   1.405       .  A
C599       C1304   1.397       .  A
C599       F1310   1.358       .  S
C600       C1303   1.397       .  A
C600       C1393   1.407       .  A
C600        H605   1.083   1_655  S
C601       C1216   1.407       .  A
C601        C602   1.409       .  A
C602        F603   1.357       .  S
F606       C1303   1.358       .  S
C607        H614   1.083   1_545  S
C608        C609   1.409       .  A
C609        C610   1.398       .  A
C609        F616   1.357       .  S
C610        C611   1.404       .  A
C610        H615   1.084       .  S
C611        C700   1.405       .  A
C617        C696   1.487       .  S
C617       C1326   1.407   1_556  A
C618        C619   1.404       .  A
C618        H623   1.083       .  S
C619        C689   1.487       .  S
C619       C1324   1.403       .  A
C620       C1323   1.403   1_455  A
C620        H624   1.083       .  S
C621        C676   1.486       .  S
C621        C622   1.405       .  A
C622       C1321   1.407   1_454  A
C622        H625   1.082       .  S
C626        C686   1.481       .  S
C626        C631   1.407       .  A
C627        C628   1.401       .  A
C627        H632   1.084       .  S
C628        C659   1.466       .  S
C629        C630   1.400       .  A
C629        H633   1.085       .  S
C630        C665   1.466       .  S
C630        C631   1.402       .  A
C631        H634   1.084       .  S
C635        C699   1.481       .  S
C635        C636   1.407       .  A
C636        C637   1.401       .  A
C636        H641   1.084       .  S
C637        C663   1.465       .  S
C637        C638   1.400       .  A
C638        H642   1.085       .  S
C639        C662   1.466       .  S
C639        C640   1.401       .  A
C640        H643   1.084       .  S
Fe644       O660   2.056       .  S
Fe644       O650   2.069       .  S
Fe644       O657   2.057       .  S
Fe644       O649   2.067       .  S
Fe644       O655   1.984       .  S
Fe645       O648   2.056       .  S
Fe645       O652   2.071       .  S
Fe645       O656   2.070       .  S
Fe645       O661   2.058       .  S
Fe645       O655   1.984       .  S
Fe646       O664   2.071       .  S
Fe646       O651   2.069       .  S
Fe646       O658   2.057       .  S
Fe646       O647   2.059       .  S
Fe646       O655   1.984       .  S
O647        C654   1.267       .  A
O648        C662   1.266       .  A
O649        C654   1.267       .  A
O650        C653   1.268       .  A
O651        C663   1.268       .  A
O652        C665   1.269       .  A
C653        C668   1.465       .  S
C653        O658   1.267       .  A
C654        C670   1.465       .  S
O656        C659   1.268       .  A
O657        C659   1.266       .  A
O660        C665   1.266       .  A
O661        C663   1.267       .  A
C662        O664   1.268       .  A
C666        C679   1.483       .  S
C666        C671   1.408   1_554  A
C667        C668   1.401       .  A
C667        H672   1.084       .  S
C669        C670   1.399   1_554  A
C669        H673   1.085       .  S
C670        C671   1.400       .  A
C671        H674   1.084       .  S
C675        C676   1.406   1_556  A
C675        C680   1.395       .  A
C675        H682   1.083       .  S
C677        C678   1.400       .  A
C677        F684   1.357       .  S
C678        H683   1.084       .  S
C679        C680   1.406   1_554  A
C680        F681   1.357       .  S
C685        C686   1.404       .  A
C685        C690   1.398       .  A
C685        H692   1.083       .  S
C687       C1392   1.397       .  A
C687       F1398   1.358       .  S
C688       C1391   1.397       .  A
C688       C1129   1.407       .  A
C688        H693   1.083   1_655  S
C689       C1304   1.407       .  A
C689        C690   1.409       .  A
C690        F691   1.357       .  S
F694       C1391   1.358       .  S
C695        H702   1.083   1_545  S
C696        C697   1.409       .  A
C697        C698   1.398       .  A
C697        F704   1.357       .  S
C698        C699   1.404       .  A
C698        H703   1.084       .  S
C705        C784   1.487       .  S
C705       C1146   1.406   1_545  A
C706       C1321   1.406       .  A
C706        C707   1.404       .  A
C706        H711   1.083       .  S
C707        C777   1.487       .  S
C708       C1325   1.404       .  A
C708        H712   1.083       .  S
C709        C764   1.486       .  S
C709       C1148   1.404   1_545  A
C709        C710   1.405       .  A
C710        H713   1.082       .  S
C714        C774   1.481       .  S
C714        C979   1.406       .  A
C714        C719   1.407   1_556  A
C715        C802   1.406       .  A
C715        C716   1.401       .  A
C715        H720   1.084       .  S
C716        C747   1.466       .  S
C716        C805   1.400       .  A
C717        C980   1.400       .  A
C717        C718   1.400   1_556  A
C717        H721   1.085       .  S
C718        C753   1.466       .  S
C718        C719   1.402       .  A
C719        H722   1.084       .  S
C723        C787   1.481       .  S
C723        C724   1.407       .  A
C723        C816   1.407       .  A
C724        C725   1.401       .  A
C724        H729   1.084       .  S
C725        C751   1.465       .  S
C725        C726   1.400       .  A
C726        C815   1.400       .  A
C726        H730   1.085       .  S
C727        C750   1.466       .  S
C727        C990   1.400   1_554  A
C727        C728   1.401       .  A
C728        C987   1.407   1_554  A
C728        H731   1.084       .  S
Fe732       O748   2.056       .  S
Fe732       O738   2.069       .  S
Fe732       O745   2.057       .  S
Fe732       O737   2.067       .  S
Fe732       O743   1.984       .  S
Fe733       O736   2.056       .  S
Fe733       O740   2.071       .  S
Fe733       O744   2.070       .  S
Fe733       O749   2.058       .  S
Fe733       O743   1.984       .  S
Fe734       O752   2.071       .  S
Fe734       O739   2.069       .  S
Fe734       O746   2.057       .  S
Fe734       O735   2.059       .  S
Fe734       O743   1.984       .  S
O735        C742   1.267       .  A
O736        C750   1.266       .  A
O737        C742   1.267       .  A
O738        C741   1.268       .  A
O739        C751   1.268       .  A
O740        C753   1.269       .  A
C741        C756   1.465       .  S
C741        O746   1.267       .  A
C742        C758   1.465       .  S
O744        C747   1.268       .  A
O745        C747   1.266       .  A
O748        C753   1.266       .  A
O749        C751   1.267       .  A
C750        O752   1.268       .  A
C754        C767   1.483       .  S
C754        C843   1.408       .  A
C754        C759   1.408       .  A
C755       C1018   1.408       .  A
C755        C756   1.401       .  A
C755        H760   1.084       .  S
C756       C1021   1.399       .  A
C757        C844   1.399       .  A
C757        C758   1.399       .  A
C757        H761   1.085       .  S
C758        C759   1.400       .  A
C759        H762   1.084       .  S
C763        C764   1.406       .  A
C763        C768   1.395       .  A
C763        H770   1.083       .  S
C764        C853   1.408       .  A
C765       C1028   1.408       .  A
C765        C766   1.400       .  A
C765        F772   1.357       .  S
C766       C1031   1.405       .  A
C766        H771   1.084       .  S
C767        C854   1.405       .  A
C767        C768   1.406       .  A
C768        F769   1.357       .  S
C773        C774   1.404   1_554  A
C773        C778   1.398       .  A
C773        H780   1.083       .  S
C774       C1039   1.405       .  A
C775        C862   1.405       .  A
C776        H781   1.083       .  S
C777        C778   1.409   1_556  A
C778        F779   1.357       .  S
C783       C1400   1.407   1_554  A
C783       C1140   1.396       .  A
C783        H790   1.083       .  S
C784       C1223   1.407       .  A
C784        C785   1.409       .  A
C785        C786   1.398       .  A
C785        F792   1.357       .  S
C786        C787   1.404       .  A
C786        H791   1.084       .  S
C787        C876   1.405       .  A
C788       C1135   1.396       .  A
C788       C1051   1.405   1_554  A
C788       F1141   1.358       .  S
F789       C1140   1.358       .  S
C793        C872   1.487       .  S
C793       C1234   1.406   1_545  A
C794       C1057   1.406       .  A
C794        C795   1.404       .  A
C794        H799   1.083       .  S
C795        C865   1.487       .  S
C796       C1061   1.404       .  A
C796        H800   1.083       .  S
C797        C852   1.486       .  S
C797       C1236   1.404   1_545  A
C797        C798   1.405       .  A
C798        H801   1.082       .  S
C802        C862   1.481       .  S
C802        C807   1.407       .  A
C803        C890   1.406       .  A
C803        C804   1.401       .  A
C803        H808   1.084       .  S
C804        C835   1.466       .  S
C804        C893   1.400       .  A
C805        C806   1.400       .  A
C805        H809   1.085       .  S
C806        C841   1.466       .  S
C806        C807   1.402       .  A
C807        H810   1.084       .  S
C811        C875   1.481       .  S
C811        C812   1.407       .  A
C811        C904   1.407       .  A
C812        C813   1.401       .  A
C812        H817   1.084       .  S
C813        C839   1.465       .  S
C813        C814   1.400       .  A
C814        C903   1.400       .  A
C814        H818   1.085       .  S
C815        C838   1.466       .  S
C815        C816   1.401       .  A
C816        H819   1.084       .  S
Fe820       O836   2.056       .  S
Fe820       O826   2.069       .  S
Fe820       O833   2.057       .  S
Fe820       O825   2.067       .  S
Fe820       O831   1.984       .  S
Fe821       O824   2.056       .  S
Fe821       O828   2.071       .  S
Fe821       O832   2.070       .  S
Fe821       O837   2.058       .  S
Fe821       O831   1.984       .  S
Fe822       O840   2.071       .  S
Fe822       O827   2.069       .  S
Fe822       O834   2.057       .  S
Fe822       O823   2.059       .  S
Fe822       O831   1.984       .  S
O823        C830   1.267       .  A
O824        C838   1.266       .  A
O825        C830   1.267       .  A
O826        C829   1.268       .  A
O827        C839   1.268       .  A
O828        C841   1.269       .  A
C829        C844   1.465       .  S
C829        O834   1.267       .  A
C830        C846   1.465       .  S
O832        C835   1.268       .  A
O833        C835   1.266       .  A
O836        C841   1.266       .  A
O837        C839   1.267       .  A
C838        O840   1.268       .  A
C842        C855   1.483       .  S
C842        C931   1.408       .  A
C842        C847   1.408       .  A
C843        C844   1.401       .  A
C843        H848   1.084       .  S
C845        C932   1.399       .  A
C845        C846   1.399       .  A
C845        H849   1.085       .  S
C846        C847   1.400       .  A
C847        H850   1.084       .  S
C851        C852   1.406       .  A
C851        C856   1.395       .  A
C851        H858   1.083       .  S
C852        C941   1.408       .  A
C853        C854   1.400       .  A
C853        F860   1.357       .  S
C854        H859   1.084       .  S
C855        C942   1.405       .  A
C855        C856   1.406       .  A
C856        F857   1.357       .  S
C861        C862   1.404       .  A
C861        C866   1.398       .  A
C861        H868   1.083       .  S
C863        C950   1.405       .  A
C864        H869   1.083       .  S
C865        C866   1.409       .  A
C866        F867   1.357       .  S
C871       C1136   1.407       .  A
C871       C1228   1.396       .  A
C871        H878   1.083       .  S
C872       C1311   1.407       .  A
C872        C873   1.409       .  A
C873        C874   1.398       .  A
C873        F880   1.357       .  S
C874        C875   1.404       .  A
C874        H879   1.084       .  S
C875        C964   1.405       .  A
C876       C1223   1.396       .  A
C876       F1229   1.358       .  S
F877       C1228   1.358       .  S
C881        C960   1.487       .  S
C881       C1322   1.406   1_545  A
C882       C1145   1.406       .  A
C882        C883   1.404       .  A
C882        H887   1.083       .  S
C883        C953   1.487       .  S
C884       C1149   1.404       .  A
C884        H888   1.083       .  S
C885        C940   1.486       .  S
C885       C1324   1.404   1_545  A
C885        C886   1.405       .  A
C886        H889   1.082       .  S
C890        C950   1.481       .  S
C890        C895   1.407       .  A
C891        C978   1.406       .  A
C891        C892   1.401       .  A
C891        H896   1.084       .  S
C892        C923   1.466       .  S
C892        C981   1.400       .  A
C893        C894   1.400       .  A
C893        H897   1.085       .  S
C894        C929   1.466       .  S
C894        C895   1.402       .  A
C895        H898   1.084       .  S
C899        C963   1.481       .  S
C899        C900   1.407       .  A
C899        C992   1.407       .  A
C900        C901   1.401       .  A
C900        H905   1.084       .  S
C901        C927   1.465       .  S
C901        C902   1.400       .  A
C902        C991   1.400       .  A
C902        H906   1.085       .  S
C903        C926   1.466       .  S
C903        C904   1.401       .  A
C904        H907   1.084       .  S
Fe908       O924   2.056       .  S
Fe908       O914   2.069       .  S
Fe908       O921   2.057       .  S
Fe908       O913   2.067       .  S
Fe908       O919   1.984       .  S
Fe909       O912   2.056       .  S
Fe909       O916   2.071       .  S
Fe909       O920   2.070       .  S
Fe909       O925   2.058       .  S
Fe909       O919   1.984       .  S
Fe910       O928   2.071       .  S
Fe910       O915   2.069       .  S
Fe910       O922   2.057       .  S
Fe910       O911   2.059       .  S
Fe910       O919   1.984       .  S
O911        C918   1.267       .  A
O912        C926   1.266       .  A
O913        C918   1.267       .  A
O914        C917   1.268       .  A
O915        C927   1.268       .  A
O916        C929   1.269       .  A
C917        C932   1.465       .  S
C917        O922   1.267       .  A
C918        C934   1.465       .  S
O920        C923   1.268       .  A
O921        C923   1.266       .  A
O924        C929   1.266       .  A
O925        C927   1.267       .  A
C926        O928   1.268       .  A
C930        C943   1.483       .  S
C930       C1019   1.408       .  A
C930        C935   1.408       .  A
C931        C932   1.401       .  A
C931        H936   1.084       .  S
C933       C1020   1.399       .  A
C933        C934   1.399       .  A
C933        H937   1.085       .  S
C934        C935   1.400       .  A
C935        H938   1.084       .  S
C939        C940   1.406       .  A
C939        C944   1.395       .  A
C939        H946   1.083       .  S
C940       C1029   1.408       .  A
C941        C942   1.400       .  A
C941        F948   1.357       .  S
C942        H947   1.084       .  S
C943       C1030   1.405       .  A
C943        C944   1.406       .  A
C944        F945   1.357       .  S
C949        C950   1.404       .  A
C949        C954   1.398       .  A
C949        H956   1.083       .  S
C951       C1038   1.405       .  A
C952        H957   1.083       .  S
C953        C954   1.409       .  A
C954        F955   1.357       .  S
C959       C1224   1.407       .  A
C959       C1316   1.396       .  A
C959        H966   1.083       .  S
C960       C1399   1.407       .  A
C960        C961   1.409       .  A
C961        C962   1.398       .  A
C961        F968   1.357       .  S
C962        C963   1.404       .  A
C962        H967   1.084       .  S
C963       C1052   1.405       .  A
C964       C1311   1.396       .  A
C964       F1317   1.358       .  S
F965       C1316   1.358       .  S
C969       C1048   1.487       .  S
C969       C1058   1.406   1_545  A
C970       C1233   1.406       .  A
C970        C971   1.404       .  A
C970        H975   1.083       .  S
C971       C1041   1.487       .  S
C972       C1237   1.404       .  A
C972        H976   1.083       .  S
C973       C1028   1.486       .  S
C973       C1060   1.404   1_545  A
C973        C974   1.405       .  A
C974        H977   1.082       .  S
C978       C1038   1.481       .  S
C978        C983   1.407       .  A
C979        C980   1.401       .  A
C979        H984   1.084       .  S
C980       C1011   1.466       .  S
C981        C982   1.400       .  A
C981        H985   1.085       .  S
C982       C1017   1.466       .  S
C982        C983   1.402       .  A
C983        H986   1.084       .  S
C987       C1051   1.481       .  S
C987        C988   1.407       .  A
C988        C989   1.401       .  A
C988        H993   1.084       .  S
C989       C1015   1.465       .  S
C989        C990   1.400       .  A
C990        H994   1.085       .  S
C991       C1014   1.466       .  S
C991        C992   1.401       .  A
C992        H995   1.084       .  S
Fe996      O1012   2.056       .  S
Fe996      O1002   2.069       .  S
Fe996      O1009   2.057       .  S
Fe996      O1001   2.067       .  S
Fe996      O1007   1.984       .  S
Fe997      O1000   2.056       .  S
Fe997      O1004   2.071       .  S
Fe997      O1008   2.070       .  S
Fe997      O1013   2.058       .  S
Fe997      O1007   1.984       .  S
Fe998      O1016   2.071       .  S
Fe998      O1003   2.069       .  S
Fe998      O1010   2.057       .  S
Fe998       O999   2.059       .  S
Fe998      O1007   1.984       .  S
O999       C1006   1.267       .  A
O1000      C1014   1.266       .  A
O1001      C1006   1.267       .  A
O1002      C1005   1.268       .  A
O1003      C1015   1.268       .  A
O1004      C1017   1.269       .  A
C1005      C1020   1.465       .  S
C1005      O1010   1.267       .  A
C1006      C1022   1.465       .  S
O1008      C1011   1.268       .  A
O1009      C1011   1.266       .  A
O1012      C1017   1.266       .  A
O1013      C1015   1.267       .  A
C1014      O1016   1.268       .  A
C1018      C1031   1.483       .  S
C1018      C1023   1.408   1_554  A
C1019      C1020   1.401       .  A
C1019      H1024   1.084       .  S
C1021      C1022   1.399   1_554  A
C1021      H1025   1.085       .  S
C1022      C1023   1.400       .  A
C1023      H1026   1.084       .  S
C1027      C1028   1.406   1_556  A
C1027      C1032   1.395       .  A
C1027      H1034   1.083       .  S
C1029      C1030   1.400       .  A
C1029      F1036   1.357       .  S
C1030      H1035   1.084       .  S
C1031      C1032   1.406   1_554  A
C1032      F1033   1.357       .  S
C1037      C1038   1.404       .  A
C1037      C1042   1.398       .  A
C1037      H1044   1.083       .  S
C1040      H1045   1.083       .  S
C1041      C1042   1.409       .  A
C1042      F1043   1.357       .  S
C1047      C1312   1.407       .  A
C1047      C1404   1.396       .  A
C1047      H1054   1.083       .  S
C1048      C1135   1.407   1_556  A
C1048      C1049   1.409       .  A
C1049      C1050   1.398       .  A
C1049      F1056   1.357       .  S
C1050      C1051   1.404       .  A
C1050      H1055   1.084       .  S
C1052      C1399   1.396       .  A
C1052      F1405   1.358       .  S
F1053      C1404   1.358       .  S
C1057      C1136   1.487       .  S
C1058      C1059   1.404       .  A
C1058      H1063   1.083       .  S
C1059      C1129   1.487       .  S
C1060      H1064   1.083       .  S
C1061      C1116   1.486       .  S
C1061      C1062   1.405       .  A
C1062      H1065   1.082       .  S
C1066      C1126   1.481       .  S
C1066      C1331   1.406       .  A
C1066      C1071   1.407   1_556  A
C1067      C1154   1.406       .  A
C1067      C1068   1.401       .  A
C1067      H1072   1.084       .  S
C1068      C1099   1.466       .  S
C1068      C1157   1.400       .  A
C1069      C1332   1.400       .  A
C1069      C1070   1.400   1_556  A
C1069      H1073   1.085       .  S
C1070      C1105   1.466       .  S
C1070      C1071   1.402       .  A
C1071      H1074   1.084       .  S
C1075      C1139   1.481       .  S
C1075      C1076   1.407       .  A
C1075      C1168   1.407       .  A
C1076      C1077   1.401       .  A
C1076      H1081   1.084       .  S
C1077      C1103   1.465       .  S
C1077      C1078   1.400       .  A
C1078      C1167   1.400       .  A
C1078      H1082   1.085       .  S
C1079      C1102   1.466       .  S
C1079      C1342   1.400   1_554  A
C1079      C1080   1.401       .  A
C1080      C1339   1.407   1_554  A
C1080      H1083   1.084       .  S
Fe1084     O1100   2.056       .  S
Fe1084     O1090   2.069       .  S
Fe1084     O1097   2.057       .  S
Fe1084     O1089   2.067       .  S
Fe1084     O1095   1.984       .  S
Fe1085     O1088   2.056       .  S
Fe1085     O1092   2.071       .  S
Fe1085     O1096   2.070       .  S
Fe1085     O1101   2.058       .  S
Fe1085     O1095   1.984       .  S
Fe1086     O1104   2.071       .  S
Fe1086     O1091   2.069       .  S
Fe1086     O1098   2.057       .  S
Fe1086     O1087   2.059       .  S
Fe1086     O1095   1.984       .  S
O1087      C1094   1.267       .  A
O1088      C1102   1.266       .  A
O1089      C1094   1.267       .  A
O1090      C1093   1.268       .  A
O1091      C1103   1.268       .  A
O1092      C1105   1.269       .  A
C1093      C1108   1.465       .  S
C1093      O1098   1.267       .  A
C1094      C1110   1.465       .  S
O1096      C1099   1.268       .  A
O1097      C1099   1.266       .  A
O1100      C1105   1.266       .  A
O1101      C1103   1.267       .  A
C1102      O1104   1.268       .  A
C1106      C1119   1.483       .  S
C1106      C1195   1.408       .  A
C1106      C1111   1.408       .  A
C1107      C1370   1.408       .  A
C1107      C1108   1.401       .  A
C1107      H1112   1.084       .  S
C1108      C1373   1.399       .  A
C1109      C1196   1.399       .  A
C1109      C1110   1.399       .  A
C1109      H1113   1.085       .  S
C1110      C1111   1.400       .  A
C1111      H1114   1.084       .  S
C1115      C1116   1.406       .  A
C1115      C1120   1.395       .  A
C1115      H1122   1.083       .  S
C1116      C1205   1.408       .  A
C1117      C1380   1.408       .  A
C1117      C1118   1.400       .  A
C1117      F1124   1.357       .  S
C1118      C1383   1.405       .  A
C1118      H1123   1.084       .  S
C1119      C1206   1.405       .  A
C1119      C1120   1.406       .  A
C1120      F1121   1.357       .  S
C1125      C1126   1.404   1_554  A
C1125      C1130   1.398       .  A
C1125      H1132   1.083       .  S
C1126      C1391   1.405       .  A
C1127      C1214   1.405       .  A
C1128      H1133   1.083       .  S
C1129      C1130   1.409   1_556  A
C1130      F1131   1.357       .  S
C1135      H1142   1.083   1_545  S
C1136      C1137   1.409       .  A
C1137      C1138   1.398       .  A
C1137      F1144   1.357       .  S
C1138      C1139   1.404       .  A
C1138      H1143   1.084       .  S
C1139      C1228   1.405       .  A
C1140      C1403   1.405   1_554  A
C1145      C1224   1.487       .  S
C1146      C1147   1.404       .  A
C1146      H1151   1.083       .  S
C1147      C1217   1.487       .  S
C1148      H1152   1.083       .  S
C1149      C1204   1.486       .  S
C1149      C1150   1.405       .  A
C1150      H1153   1.082       .  S
C1154      C1214   1.481       .  S
C1154      C1159   1.407       .  A
C1155      C1242   1.406       .  A
C1155      C1156   1.401       .  A
C1155      H1160   1.084       .  S
C1156      C1187   1.466       .  S
C1156      C1245   1.400       .  A
C1157      C1158   1.400       .  A
C1157      H1161   1.085       .  S
C1158      C1193   1.466       .  S
C1158      C1159   1.402       .  A
C1159      H1162   1.084       .  S
C1163      C1227   1.481       .  S
C1163      C1164   1.407       .  A
C1163      C1256   1.407       .  A
C1164      C1165   1.401       .  A
C1164      H1169   1.084       .  S
C1165      C1191   1.465       .  S
C1165      C1166   1.400       .  A
C1166      C1255   1.400       .  A
C1166      H1170   1.085       .  S
C1167      C1190   1.466       .  S
C1167      C1168   1.401       .  A
C1168      H1171   1.084       .  S
Fe1172     O1188   2.056       .  S
Fe1172     O1178   2.069       .  S
Fe1172     O1185   2.057       .  S
Fe1172     O1177   2.067       .  S
Fe1172     O1183   1.984       .  S
Fe1173     O1176   2.056       .  S
Fe1173     O1180   2.071       .  S
Fe1173     O1184   2.070       .  S
Fe1173     O1189   2.058       .  S
Fe1173     O1183   1.984       .  S
Fe1174     O1192   2.071       .  S
Fe1174     O1179   2.069       .  S
Fe1174     O1186   2.057       .  S
Fe1174     O1175   2.059       .  S
Fe1174     O1183   1.984       .  S
O1175      C1182   1.267       .  A
O1176      C1190   1.266       .  A
O1177      C1182   1.267       .  A
O1178      C1181   1.268       .  A
O1179      C1191   1.268       .  A
O1180      C1193   1.269       .  A
C1181      C1196   1.465       .  S
C1181      O1186   1.267       .  A
C1182      C1198   1.465       .  S
O1184      C1187   1.268       .  A
O1185      C1187   1.266       .  A
O1188      C1193   1.266       .  A
O1189      C1191   1.267       .  A
C1190      O1192   1.268       .  A
C1194      C1207   1.483       .  S
C1194      C1283   1.408       .  A
C1194      C1199   1.408       .  A
C1195      C1196   1.401       .  A
C1195      H1200   1.084       .  S
C1197      C1284   1.399       .  A
C1197      C1198   1.399       .  A
C1197      H1201   1.085       .  S
C1198      C1199   1.400       .  A
C1199      H1202   1.084       .  S
C1203      C1204   1.406       .  A
C1203      C1208   1.395       .  A
C1203      H1210   1.083       .  S
C1204      C1293   1.408       .  A
C1205      C1206   1.400       .  A
C1205      F1212   1.357       .  S
C1206      H1211   1.084       .  S
C1207      C1294   1.405       .  A
C1207      C1208   1.406       .  A
C1208      F1209   1.357       .  S
C1213      C1214   1.404       .  A
C1213      C1218   1.398       .  A
C1213      H1220   1.083       .  S
C1215      C1302   1.405       .  A
C1216      H1221   1.083       .  S
C1217      C1218   1.409       .  A
C1218      F1219   1.357       .  S
C1223      H1230   1.083   1_545  S
C1224      C1225   1.409       .  A
C1225      C1226   1.398       .  A
C1225      F1232   1.357       .  S
C1226      C1227   1.404       .  A
C1226      H1231   1.084       .  S
C1227      C1316   1.405       .  A
C1233      C1312   1.487       .  S
C1234      C1235   1.404       .  A
C1234      H1239   1.083       .  S
C1235      C1305   1.487       .  S
C1236      H1240   1.083       .  S
C1237      C1292   1.486       .  S
C1237      C1238   1.405       .  A
C1238      H1241   1.082       .  S
C1242      C1302   1.481       .  S
C1242      C1247   1.407       .  A
C1243      C1330   1.406       .  A
C1243      C1244   1.401       .  A
C1243      H1248   1.084       .  S
C1244      C1275   1.466       .  S
C1244      C1333   1.400       .  A
C1245      C1246   1.400       .  A
C1245      H1249   1.085       .  S
C1246      C1281   1.466       .  S
C1246      C1247   1.402       .  A
C1247      H1250   1.084       .  S
C1251      C1315   1.481       .  S
C1251      C1252   1.407       .  A
C1251      C1344   1.407       .  A
C1252      C1253   1.401       .  A
C1252      H1257   1.084       .  S
C1253      C1279   1.465       .  S
C1253      C1254   1.400       .  A
C1254      C1343   1.400       .  A
C1254      H1258   1.085       .  S
C1255      C1278   1.466       .  S
C1255      C1256   1.401       .  A
C1256      H1259   1.084       .  S
Fe1260     O1276   2.056       .  S
Fe1260     O1266   2.069       .  S
Fe1260     O1273   2.057       .  S
Fe1260     O1265   2.067       .  S
Fe1260     O1271   1.984       .  S
Fe1261     O1264   2.056       .  S
Fe1261     O1268   2.071       .  S
Fe1261     O1272   2.070       .  S
Fe1261     O1277   2.058       .  S
Fe1261     O1271   1.984       .  S
Fe1262     O1280   2.071       .  S
Fe1262     O1267   2.069       .  S
Fe1262     O1274   2.057       .  S
Fe1262     O1263   2.059       .  S
Fe1262     O1271   1.984       .  S
O1263      C1270   1.267       .  A
O1264      C1278   1.266       .  A
O1265      C1270   1.267       .  A
O1266      C1269   1.268       .  A
O1267      C1279   1.268       .  A
O1268      C1281   1.269       .  A
C1269      C1284   1.465       .  S
C1269      O1274   1.267       .  A
C1270      C1286   1.465       .  S
O1272      C1275   1.268       .  A
O1273      C1275   1.266       .  A
O1276      C1281   1.266       .  A
O1277      C1279   1.267       .  A
C1278      O1280   1.268       .  A
C1282      C1295   1.483       .  S
C1282      C1371   1.408       .  A
C1282      C1287   1.408       .  A
C1283      C1284   1.401       .  A
C1283      H1288   1.084       .  S
C1285      C1372   1.399       .  A
C1285      C1286   1.399       .  A
C1285      H1289   1.085       .  S
C1286      C1287   1.400       .  A
C1287      H1290   1.084       .  S
C1291      C1292   1.406       .  A
C1291      C1296   1.395       .  A
C1291      H1298   1.083       .  S
C1292      C1381   1.408       .  A
C1293      C1294   1.400       .  A
C1293      F1300   1.357       .  S
C1294      H1299   1.084       .  S
C1295      C1382   1.405       .  A
C1295      C1296   1.406       .  A
C1296      F1297   1.357       .  S
C1301      C1302   1.404       .  A
C1301      C1306   1.398       .  A
C1301      H1308   1.083       .  S
C1303      C1390   1.405       .  A
C1304      H1309   1.083       .  S
C1305      C1306   1.409       .  A
C1306      F1307   1.357       .  S
C1311      H1318   1.083   1_545  S
C1312      C1313   1.409       .  A
C1313      C1314   1.398       .  A
C1313      F1320   1.357       .  S
C1314      C1315   1.404       .  A
C1314      H1319   1.084       .  S
C1315      C1404   1.405       .  A
C1321      C1400   1.487       .  S
C1322      C1323   1.404       .  A
C1322      H1327   1.083       .  S
C1323      C1393   1.487       .  S
C1324      H1328   1.083       .  S
C1325      C1380   1.486       .  S
C1325      C1326   1.405       .  A
C1326      H1329   1.082       .  S
C1330      C1390   1.481       .  S
C1330      C1335   1.407       .  A
C1331      C1332   1.401       .  A
C1331      H1336   1.084       .  S
C1332      C1363   1.466       .  S
C1333      C1334   1.400       .  A
C1333      H1337   1.085       .  S
C1334      C1369   1.466       .  S
C1334      C1335   1.402       .  A
C1335      H1338   1.084       .  S
C1339      C1403   1.481       .  S
C1339      C1340   1.407       .  A
C1340      C1341   1.401       .  A
C1340      H1345   1.084       .  S
C1341      C1367   1.465       .  S
C1341      C1342   1.400       .  A
C1342      H1346   1.085       .  S
C1343      C1366   1.466       .  S
C1343      C1344   1.401       .  A
C1344      H1347   1.084       .  S
Fe1348     O1364   2.056       .  S
Fe1348     O1354   2.069       .  S
Fe1348     O1361   2.057       .  S
Fe1348     O1353   2.067       .  S
Fe1348     O1359   1.984       .  S
Fe1349     O1352   2.056       .  S
Fe1349     O1356   2.071       .  S
Fe1349     O1360   2.070       .  S
Fe1349     O1365   2.058       .  S
Fe1349     O1359   1.984       .  S
Fe1350     O1368   2.071       .  S
Fe1350     O1355   2.069       .  S
Fe1350     O1362   2.057       .  S
Fe1350     O1351   2.059       .  S
Fe1350     O1359   1.984       .  S
O1351      C1358   1.267       .  A
O1352      C1366   1.266       .  A
O1353      C1358   1.267       .  A
O1354      C1357   1.268       .  A
O1355      C1367   1.268       .  A
O1356      C1369   1.269       .  A
C1357      C1372   1.465       .  S
C1357      O1362   1.267       .  A
C1358      C1374   1.465       .  S
O1360      C1363   1.268       .  A
O1361      C1363   1.266       .  A
O1364      C1369   1.266       .  A
O1365      C1367   1.267       .  A
C1366      O1368   1.268       .  A
C1370      C1383   1.483       .  S
C1370      C1375   1.408   1_554  A
C1371      C1372   1.401       .  A
C1371      H1376   1.084       .  S
C1373      C1374   1.399   1_554  A
C1373      H1377   1.085       .  S
C1374      C1375   1.400       .  A
C1375      H1378   1.084       .  S
C1379      C1380   1.406   1_556  A
C1379      C1384   1.395       .  A
C1379      H1386   1.083       .  S
C1381      C1382   1.400       .  A
C1381      F1388   1.357       .  S
C1382      H1387   1.084       .  S
C1383      C1384   1.406   1_554  A
C1384      F1385   1.357       .  S
C1389      C1390   1.404       .  A
C1389      C1394   1.398       .  A
C1389      H1396   1.083       .  S
C1392      H1397   1.083       .  S
C1393      C1394   1.409       .  A
C1394      F1395   1.357       .  S
C1399      H1406   1.083   1_545  S
C1400      C1401   1.409       .  A
C1401      C1402   1.398       .  A
C1401      F1408   1.357       .  S
C1402      C1403   1.404       .  A
C1402      H1407   1.084       .  S
