geometry optimzed in LAMMPS
_audit_creation_date              2020-11-30 
_audit_creation_method            'lammps2cif' 
_symmetry_space_group_name_H-M    'P1' 
_symmetry_Int_Tables_number       1 
_symmetry_cell_setting            triclinic 
loop_ 
_symmetry_equiv_pos_as_xyz 
  x,y,z 
_cell_length_a                    50.19967473895128 
_cell_length_b                    50.375515446887235 
_cell_length_c                    33.742301496020275 
_cell_angle_alpha                 89.97321066523826 
_cell_angle_beta                  89.99905395183364 
_cell_angle_gamma                 120.77076549998876 
loop_ 
_atom_site_label 
_atom_site_type_symbol 
_atom_site_fract_x 
_atom_site_fract_y 
_atom_site_fract_z 
_atom_site_charge 
C1          C  0.23537777  0.47173947  0.10192500     0.06530
C2          C  0.23570524  0.47178033  0.14343362    -0.09620
C3          C  0.24907078  0.49982400  0.16417890     0.04030
C4          C  0.26212516  0.02783952  0.14337241    -0.08140
C5          C  0.26180781  0.02782452  0.10186582     0.06520
C6          C  0.24844907  0.99977002  0.08120615    -0.07570
H7          H  0.22554734  0.45010311  0.15951293     0.12120
H8          H  0.27244734  0.04953248  0.15940162     0.09650
H9          H  0.24818389  0.99974913  0.04906292     0.09490
C10         C  0.26201556  0.02795041  0.34746834     0.06530
C11         C  0.26232956  0.02792906  0.30596077    -0.09620
C12         C  0.24905488  0.49988378  0.28523088     0.04030
C13         C  0.23547352  0.47184763  0.30605265    -0.08140
C14         C  0.23515566  0.47184239  0.34756052     0.06520
C15         C  0.24844225  0.49990115  0.36820341    -0.07570
H16         H  0.27281653  0.04961543  0.28987257     0.12120
H17         H  0.22515840  0.45014958  0.29003301     0.09650
H18         H  0.24818622  0.49990709  0.40034733     0.09490
Fe19       Fe  0.35317335  0.14428291  0.47469877     1.65780
Fe20       Fe  0.35354336  0.21264978  0.47491171     1.73250
Fe21       Fe  0.28433622  0.14349667  0.47462473     1.54410
O22         O  0.28102613  0.11282247  0.43153242    -0.78270
O23         O  0.32655650  0.21532351  0.01903638    -0.76580
O24         O  0.32618102  0.11423684  0.43054165    -0.80780
O25         O  0.32535061  0.11329752  0.01765505    -0.75630
O26         O  0.28145747  0.17032270  0.43050712    -0.77410
O27         O  0.38440134  0.21608779  0.01798211    -0.80150
C28         C  0.29829103  0.10366809  0.03084976     1.00610
C29         C  0.29872281  0.10380533  0.41837779     1.08050
O30         O  0.33034366  0.16681273  0.47474591    -1.09140
O31         O  0.38366954  0.21617615  0.43076366    -0.71570
O32         O  0.38416929  0.17213824  0.43172710    -0.75050
O33         O  0.28101715  0.11352802  0.01875722    -0.75740
C34         C  0.39369178  0.19909667  0.41859415     0.99520
O35         O  0.38329360  0.17124320  0.01885843    -0.73700
O36         O  0.32593509  0.21562739  0.43190045    -0.78890
C37         C  0.29899691  0.19787564  0.03099420     1.02140
C38         C  0.29888591  0.19781246  0.41856330     1.08060
O39         O  0.28119148  0.17089940  0.01767116    -0.74540
C40         C  0.39361178  0.19856533  0.03107704     1.06360
C41         C  0.26147501  0.23551700  0.10190890     0.06530
C42         C  0.26156974  0.23562514  0.14341721    -0.09620
C43         C  0.24785957  0.24969765  0.16418137     0.04030
C44         C  0.23404807  0.26366854  0.14339583    -0.08140
C45         C  0.23394774  0.26357659  0.10188782     0.06520
C46         C  0.24766099  0.24949634  0.08120794    -0.07570
H47         H  0.27226503  0.22482860  0.15947986     0.12120
H48         H  0.22344949  0.27455834  0.15943657     0.09650
H49         H  0.24759722  0.24943232  0.04905443     0.09490
C50         C  0.26178298  0.23584967  0.34754080     0.06530
C51         C  0.26176496  0.23582617  0.30602955    -0.09650
C52         C  0.24814306  0.24997736  0.28522322     0.04030
C53         C  0.23453858  0.26416115  0.30596681    -0.08140
C54         C  0.23454283  0.26419450  0.34747309     0.06520
C55         C  0.24817384  0.25004348  0.36819738    -0.07570
H56         H  0.27228008  0.22484452  0.28999850     0.12120
H57         H  0.22397982  0.27508206  0.28989340     0.09650
H58         H  0.24816708  0.25005357  0.40035196     0.09490
Fe59       Fe  0.14289548  0.35543586  0.47482008     1.65780
Fe60       Fe  0.14234517  0.28696905  0.47455155     1.73250
Fe61       Fe  0.21162901  0.35600781  0.47473406     1.54420
O62         O  0.21508976  0.38685668  0.43180389    -0.78270
O63         O  0.16912106  0.28402575  0.01874115    -0.76580
O64         O  0.16996298  0.38551679  0.43062650    -0.80780
O65         O  0.17081629  0.38637784  0.01777884    -0.75630
O66         O  0.21456327  0.32935264  0.43050168    -0.77410
O67         O  0.11137090  0.28341021  0.01750686    -0.80150
C68         C  0.19783201  0.39584367  0.03102498     1.00610
C69         C  0.19746185  0.39593547  0.41857340     1.08050
O70         O  0.16562612  0.33280398  0.47470111    -1.09140
O71         O  0.11241971  0.28372190  0.43033525    -0.71570
O72         O  0.11177307  0.32767433  0.43187321    -0.75050
O73         O  0.21498101  0.38583890  0.01897598    -0.75740
C74         C  0.10231761  0.30080717  0.41846463     0.99520
O75         O  0.11277358  0.32839699  0.01903328    -0.73700
O76         O  0.17004307  0.28409464  0.43158830    -0.78890
C77         C  0.19664405  0.30137783  0.03085410     1.02140
C78         C  0.19713996  0.30193120  0.41839128     1.08060
O79         O  0.21455535  0.32838637  0.01766459    -0.74540
C80         C  0.10228936  0.30094574  0.03091533     1.06360
C81         C  0.02610190  0.26298835  0.10191464     0.06530
C82         C  0.49793228  0.24943979  0.08125618    -0.09620
C83         C  0.46977596  0.23573407  0.10197754     0.04030
C84         C  0.46979919  0.23555389  0.14348601    -0.08140
C85         C  0.49795206  0.24908947  0.16423381     0.06520
C86         C  0.02609726  0.26280031  0.14342743    -0.07570
H87         H  0.49792302  0.24959707  0.04910548     0.12120
H88         H  0.44806345  0.22498516  0.15953704     0.09650
H89         H  0.04784481  0.27329750  0.15943732     0.09490
C90         C  0.02612704  0.26319068  0.34756662     0.06530
C91         C  0.49797641  0.24985397  0.36826337    -0.09620
C92         C  0.46981668  0.23624723  0.34758136     0.04030
C93         C  0.46981764  0.23596231  0.30607285    -0.08140
C94         C  0.49795559  0.24928664  0.28528911     0.06520
C95         C  0.02610294  0.26289420  0.30605810    -0.07570
H96         H  0.49798403  0.25007692  0.40041151     0.12120
H97         H  0.44807802  0.22545344  0.29005162     0.09650
H98         H  0.04783999  0.27321874  0.29002041     0.09490
C99         C  0.49795268  0.24908974  0.24262968    -0.09870
C100        C  0.49795866  0.24903220  0.20689471    -0.11430
C101        C  0.05490932  0.27722758  0.36920227    -0.09870
C102        C  0.07770232  0.28848265  0.38988687    -0.11430
C103        C  0.07766923  0.28851709  0.05951411    -0.09870
C104        C  0.05488125  0.27715749  0.08023360    -0.11430
C105        C  0.22052520  0.27858439  0.36908403    -0.09870
C106        C  0.20933112  0.28987103  0.38977840    -0.11430
C107        C  0.20871266  0.28919729  0.05948416    -0.09870
C108        C  0.21986222  0.27788390  0.08022468    -0.11430
C109        C  0.24797870  0.24981348  0.20683647    -0.09870
C110        C  0.24807204  0.24989773  0.24256766    -0.11430
C111        C  0.27554635  0.22118706  0.08027339    -0.09870
C112        C  0.28676318  0.20991866  0.05958098    -0.11430
C113        C  0.27569670  0.22137510  0.36922688    -0.09870
C114        C  0.28677426  0.20997964  0.38995815    -0.11430
C115        C  0.41828257  0.21147968  0.38997126    -0.09870
C116        C  0.44105178  0.22254766  0.36924079    -0.11430
C117        C  0.44099185  0.22191267  0.08036518    -0.09870
C118        C  0.41820439  0.21083640  0.05968135    -0.11430
C119        C  0.22111523  0.44317357  0.36925174    -0.09870
C120        C  0.20983691  0.42046900  0.38997588    -0.11430
C121        C  0.28651746  0.07931297  0.38976338    -0.09870
C122        C  0.27559027  0.05662023  0.36907166    -0.11430
C123        C  0.22148247  0.44306014  0.08030875    -0.09870
C124        C  0.21024550  0.42035446  0.05962045    -0.11430
C125        C  0.27519061  0.05646594  0.08018841    -0.09870
C126        C  0.28604093  0.07915117  0.05946032    -0.11430
C127        C  0.24922954  0.49986727  0.24257184    -0.09870
C128        C  0.24923457  0.49984693  0.20683799    -0.11430
C129        C  0.23537776  0.47173947  0.60192502     0.06530
C130        C  0.23570524  0.47178033  0.64343363    -0.09620
C131        C  0.24907078  0.49982400  0.66417892     0.04030
C132        C  0.26212515  0.02783952  0.64337240    -0.08140
C133        C  0.26180780  0.02782452  0.60186581     0.06520
C134        C  0.24844906  0.99977002  0.58120615    -0.07570
H135        H  0.22554733  0.45010311  0.65951295     0.12120
H136        H  0.27244733  0.04953248  0.65940162     0.09650
H137        H  0.24818388  0.99974913  0.54906292     0.09490
C138        C  0.26201555  0.02795042  0.84746833     0.06530
C139        C  0.26232955  0.02792907  0.80596077    -0.09620
C140        C  0.24905488  0.49988378  0.78523089     0.04030
C141        C  0.23547351  0.47184764  0.80605266    -0.08140
C142        C  0.23515565  0.47184239  0.84756054     0.06520
C143        C  0.24844225  0.49990115  0.86820343    -0.07570
H144        H  0.27281653  0.04961544  0.78987256     0.12120
H145        H  0.22515839  0.45014958  0.79003303     0.09650
H146        H  0.24818621  0.49990709  0.90034735     0.09490
Fe147      Fe  0.35317335  0.14428291  0.97469876     1.65780
Fe148      Fe  0.35354336  0.21264978  0.97491173     1.73250
Fe149      Fe  0.28433622  0.14349667  0.97462475     1.54410
O150        O  0.28102612  0.11282247  0.93153243    -0.78270
O151        O  0.32655650  0.21532352  0.51903636    -0.76580
O152        O  0.32618102  0.11423685  0.93054164    -0.80780
O153        O  0.32535062  0.11329752  0.51765506    -0.75630
O154        O  0.28145747  0.17032269  0.93050713    -0.77410
O155        O  0.38440134  0.21608779  0.51798209    -0.80150
C156        C  0.29829103  0.10366809  0.53084976     1.00610
C157        C  0.29872281  0.10380533  0.91837779     1.08050
O158        O  0.33034366  0.16681273  0.97474592    -1.09140
O159        O  0.38366954  0.21617616  0.93076367    -0.71570
O160        O  0.38416929  0.17213825  0.93172710    -0.75050
O161        O  0.28101715  0.11352802  0.51875721    -0.75740
C162        C  0.39369177  0.19909667  0.91859416     0.99520
O163        O  0.38329360  0.17124321  0.51885843    -0.73700
O164        O  0.32593509  0.21562740  0.93190048    -0.78890
C165        C  0.29899691  0.19787564  0.53099418     1.02140
C166        C  0.29888591  0.19781246  0.91856331     1.08060
O167        O  0.28119148  0.17089940  0.51767115    -0.74540
C168        C  0.39361178  0.19856533  0.53107703     1.06360
C169        C  0.26147501  0.23551700  0.60190889     0.06530
C170        C  0.26156974  0.23562513  0.64341720    -0.09620
C171        C  0.24785956  0.24969764  0.66418137     0.04030
C172        C  0.23404807  0.26366854  0.64339583    -0.08140
C173        C  0.23394774  0.26357660  0.60188782     0.06520
C174        C  0.24766099  0.24949635  0.58120794    -0.07570
H175        H  0.27226503  0.22482858  0.65947985     0.12120
H176        H  0.22344949  0.27455833  0.65943657     0.09650
H177        H  0.24759722  0.24943233  0.54905442     0.09490
C178        C  0.26178298  0.23584966  0.84754080     0.06530
C179        C  0.26176495  0.23582616  0.80602955    -0.09650
C180        C  0.24814305  0.24997734  0.78522321     0.04030
C181        C  0.23453857  0.26416113  0.80596680    -0.08140
C182        C  0.23454281  0.26419448  0.84747308     0.06520
C183        C  0.24817383  0.25004347  0.86819738    -0.07570
H184        H  0.27228007  0.22484450  0.78999851     0.12120
H185        H  0.22397980  0.27508203  0.78989339     0.09650
H186        H  0.24816707  0.25005356  0.90035196     0.09490
Fe187      Fe  0.14289547  0.35543585  0.97482009     1.65780
Fe188      Fe  0.14234516  0.28696904  0.97455154     1.73250
Fe189      Fe  0.21162900  0.35600780  0.97473404     1.54420
O190        O  0.21508975  0.38685667  0.93180388    -0.78270
O191        O  0.16912106  0.28402577  0.51874117    -0.76580
O192        O  0.16996297  0.38551679  0.93062651    -0.80780
O193        O  0.17081630  0.38637786  0.51777882    -0.75630
O194        O  0.21456326  0.32935263  0.93050167    -0.77410
O195        O  0.11137090  0.28341022  0.51750687    -0.80150
C196        C  0.19783201  0.39584367  0.53102498     1.00610
C197        C  0.19746184  0.39593546  0.91857340     1.08050
O198        O  0.16562611  0.33280397  0.97470110    -1.09140
O199        O  0.11241969  0.28372189  0.93033525    -0.71570
O200        O  0.11177306  0.32767433  0.93187322    -0.75050
O201        O  0.21498101  0.38583890  0.51897600    -0.75740
C202        C  0.10231760  0.30080717  0.91846463     0.99520
O203        O  0.11277358  0.32839701  0.51903327    -0.73700
O204        O  0.17004306  0.28409463  0.93158828    -0.78890
C205        C  0.19664406  0.30137784  0.53085411     1.02140
C206        C  0.19713995  0.30193119  0.91839126     1.08060
O207        O  0.21455536  0.32838638  0.51766460    -0.74540
C208        C  0.10228936  0.30094576  0.53091533     1.06360
C209        C  0.02610191  0.26298839  0.60191464     0.06530
C210        C  0.49793229  0.24943982  0.58125617    -0.09620
C211        C  0.46977597  0.23573410  0.60197753     0.04030
C212        C  0.46979920  0.23555392  0.64348600    -0.08140
C213        C  0.49795206  0.24908951  0.66423380     0.06520
C214        C  0.02609727  0.26280035  0.64342743    -0.07570
H215        H  0.49792303  0.24959709  0.54910547     0.12120
H216        H  0.44806346  0.22498519  0.65953703     0.09650
H217        H  0.04784481  0.27329755  0.65943732     0.09490
C218        C  0.02612702  0.26319070  0.84756662     0.06530
C219        C  0.49797640  0.24985398  0.86826336    -0.09620
C220        C  0.46981667  0.23624725  0.84758135     0.04030
C221        C  0.46981763  0.23596234  0.80607284    -0.08140
C222        C  0.49795558  0.24928667  0.78528910     0.06520
C223        C  0.02610293  0.26289423  0.80605811    -0.07570
H224        H  0.49798402  0.25007693  0.90041150     0.12120
H225        H  0.44807801  0.22545347  0.79005161     0.09650
H226        H  0.04783998  0.27321877  0.79002041     0.09490
C227        C  0.49795268  0.24908977  0.74262968    -0.09870
C228        C  0.49795867  0.24903224  0.70689470    -0.11430
C229        C  0.05490931  0.27722759  0.86920227    -0.09870
C230        C  0.07770231  0.28848266  0.88988688    -0.11430
C231        C  0.07766924  0.28851712  0.55951411    -0.09870
C232        C  0.05488125  0.27715752  0.58023360    -0.11430
C233        C  0.22052519  0.27858437  0.86908402    -0.09870
C234        C  0.20933111  0.28987102  0.88977838    -0.11430
C235        C  0.20871267  0.28919730  0.55948417    -0.09870
C236        C  0.21986222  0.27788390  0.58022469    -0.11430
C237        C  0.24797870  0.24981346  0.70683647    -0.09870
C238        C  0.24807203  0.24989771  0.74256766    -0.11430
C239        C  0.27554635  0.22118706  0.58027337    -0.09870
C240        C  0.28676318  0.20991866  0.55958097    -0.11430
C241        C  0.27569670  0.22137509  0.86922689    -0.09870
C242        C  0.28677426  0.20997964  0.88995816    -0.11430
C243        C  0.41828256  0.21147969  0.88997126    -0.09870
C244        C  0.44105177  0.22254767  0.86924079    -0.11430
C245        C  0.44099186  0.22191270  0.58036516    -0.09870
C246        C  0.41820440  0.21083641  0.55968134    -0.11430
C247        C  0.22111522  0.44317357  0.86925175    -0.09870
C248        C  0.20983690  0.42046899  0.88997589    -0.11430
C249        C  0.28651745  0.07931297  0.88976338    -0.09870
C250        C  0.27559027  0.05662023  0.86907166    -0.11430
C251        C  0.22148247  0.44306013  0.58030877    -0.09870
C252        C  0.21024550  0.42035447  0.55962046    -0.11430
C253        C  0.27519060  0.05646594  0.58018840    -0.09870
C254        C  0.28604093  0.07915117  0.55946032    -0.11430
C255        C  0.24922954  0.49986728  0.74257185    -0.09870
C256        C  0.24923457  0.49984693  0.70683801    -0.11430
C257        C  0.23537776  0.97173947  0.10192501     0.06530
C258        C  0.23570523  0.97178033  0.14343362    -0.09620
C259        C  0.24907078  0.99982400  0.16417891     0.04030
C260        C  0.26212515  0.52783952  0.14337240    -0.08140
C261        C  0.26180781  0.52782452  0.10186581     0.06520
C262        C  0.24844907  0.49977002  0.08120614    -0.07570
H263        H  0.22554732  0.95010311  0.15951294     0.12120
H264        H  0.27244732  0.54953248  0.15940161     0.09650
H265        H  0.24818390  0.49974913  0.04906291     0.09490
C266        C  0.26201555  0.52795042  0.34746833     0.06530
C267        C  0.26232955  0.52792906  0.30596076    -0.09620
C268        C  0.24905489  0.99988377  0.28523089     0.04030
C269        C  0.23547352  0.97184763  0.30605265    -0.08140
C270        C  0.23515566  0.97184239  0.34756053     0.06520
C271        C  0.24844226  0.99990115  0.36820342    -0.07570
H272        H  0.27281652  0.54961543  0.28987256     0.12120
H273        H  0.22515840  0.95014957  0.29003302     0.09650
H274        H  0.24818623  0.99990708  0.40034734     0.09490
Fe275      Fe  0.35317335  0.64428290  0.47469876     1.65780
Fe276      Fe  0.35354336  0.71264977  0.47491172     1.73250
Fe277      Fe  0.28433622  0.64349667  0.47462474     1.54410
O278        O  0.28102612  0.61282246  0.43153242    -0.78270
O279        O  0.32655649  0.71532352  0.01903637    -0.76580
O280        O  0.32618101  0.61423684  0.43054164    -0.80780
O281        O  0.32535061  0.61329753  0.01765506    -0.75630
O282        O  0.28145746  0.67032269  0.43050713    -0.77410
O283        O  0.38440133  0.71608779  0.01798211    -0.80150
C284        C  0.29829102  0.60366810  0.03084977     1.00610
C285        C  0.29872281  0.60380532  0.41837779     1.08050
O286        O  0.33034366  0.66681272  0.47474591    -1.09140
O287        O  0.38366954  0.71617615  0.43076366    -0.71570
O288        O  0.38416929  0.67213824  0.43172710    -0.75050
O289        O  0.28101714  0.61352802  0.01875722    -0.75740
C290        C  0.39369177  0.69909666  0.41859415     0.99520
O291        O  0.38329359  0.67124321  0.01885843    -0.73700
O292        O  0.32593509  0.71562739  0.43190046    -0.78890
C293        C  0.29899690  0.69787565  0.03099420     1.02140
C294        C  0.29888591  0.69781246  0.41856330     1.08060
O295        O  0.28119147  0.67089940  0.01767116    -0.74540
C296        C  0.39361178  0.69856534  0.03107704     1.06360
C297        C  0.26147500  0.73551701  0.10190890     0.06530
C298        C  0.26156973  0.73562514  0.14341721    -0.09620
C299        C  0.24785955  0.74969765  0.16418138     0.04030
C300        C  0.23404806  0.76366855  0.14339583    -0.08140
C301        C  0.23394773  0.76357660  0.10188782     0.06520
C302        C  0.24766098  0.74949635  0.08120795    -0.07570
H303        H  0.27226502  0.72482860  0.15947986     0.12120
H304        H  0.22344948  0.77455834  0.15943658     0.09650
H305        H  0.24759721  0.74943233  0.04905443     0.09490
C306        C  0.26178297  0.73584966  0.34754080     0.06530
C307        C  0.26176495  0.73582616  0.30602955    -0.09650
C308        C  0.24814305  0.74997735  0.28522322     0.04030
C309        C  0.23453857  0.76416114  0.30596682    -0.08140
C310        C  0.23454281  0.76419448  0.34747309     0.06520
C311        C  0.24817383  0.75004347  0.36819739    -0.07570
H312        H  0.27228007  0.72484451  0.28999850     0.12120
H313        H  0.22397981  0.77508205  0.28989341     0.09650
H314        H  0.24816707  0.75005356  0.40035197     0.09490
Fe315      Fe  0.14289546  0.85543585  0.47482007     1.65780
Fe316      Fe  0.14234516  0.78696905  0.47455155     1.73250
Fe317      Fe  0.21162900  0.85600780  0.47473406     1.54420
O318        O  0.21508975  0.88685667  0.43180389    -0.78270
O319        O  0.16912105  0.78402576  0.01874116    -0.76580
O320        O  0.16996297  0.88551678  0.43062650    -0.80780
O321        O  0.17081628  0.88637785  0.01777883    -0.75630
O322        O  0.21456326  0.82935263  0.43050169    -0.77410
O323        O  0.11137089  0.78341022  0.01750686    -0.80150
C324        C  0.19783200  0.89584367  0.03102498     1.00610
C325        C  0.19746184  0.89593546  0.41857340     1.08050
O326        O  0.16562610  0.83280397  0.47470111    -1.09140
O327        O  0.11241969  0.78372188  0.43033526    -0.71570
O328        O  0.11177306  0.82767432  0.43187320    -0.75050
O329        O  0.21498100  0.88583890  0.01897598    -0.75740
C330        C  0.10231760  0.80080716  0.41846463     0.99520
O331        O  0.11277357  0.82839700  0.01903327    -0.73700
O332        O  0.17004306  0.78409463  0.43158830    -0.78890
C333        C  0.19664404  0.80137784  0.03085411     1.02140
C334        C  0.19713995  0.80193119  0.41839128     1.08060
O335        O  0.21455534  0.82838638  0.01766460    -0.74540
C336        C  0.10228935  0.80094575  0.03091533     1.06360
C337        C  0.02610190  0.76298838  0.10191464     0.06530
C338        C  0.49793228  0.74943981  0.08125617    -0.09620
C339        C  0.46977596  0.73573409  0.10197754     0.04030
C340        C  0.46979920  0.73555391  0.14348600    -0.08140
C341        C  0.49795206  0.74908949  0.16423380     0.06520
C342        C  0.02609726  0.76280033  0.14342743    -0.07570
H343        H  0.49792303  0.74959709  0.04910547     0.12120
H344        H  0.44806345  0.72498518  0.15953703     0.09650
H345        H  0.04784480  0.77329753  0.15943732     0.09490
C346        C  0.02612702  0.76319068  0.34756662     0.06530
C347        C  0.49797641  0.74985396  0.36826336    -0.09620
C348        C  0.46981667  0.73624723  0.34758136     0.04030
C349        C  0.46981763  0.73596231  0.30607284    -0.08140
C350        C  0.49795558  0.74928664  0.28528910     0.06520
C351        C  0.02610293  0.76289420  0.30605810    -0.07570
H352        H  0.49798402  0.75007691  0.40041150     0.12120
H353        H  0.44807801  0.72545345  0.29005162     0.09650
H354        H  0.04783998  0.77321875  0.29002041     0.09490
C355        C  0.49795268  0.74908975  0.24262968    -0.09870
C356        C  0.49795866  0.74903222  0.20689470    -0.11430
C357        C  0.05490931  0.77722757  0.36920227    -0.09870
C358        C  0.07770231  0.78848264  0.38988687    -0.11430
C359        C  0.07766922  0.78851711  0.05951411    -0.09870
C360        C  0.05488124  0.77715751  0.08023360    -0.11430
C361        C  0.22052519  0.77858438  0.36908404    -0.09870
C362        C  0.20933111  0.78987102  0.38977840    -0.11430
C363        C  0.20871265  0.78919730  0.05948417    -0.09870
C364        C  0.21986221  0.77788391  0.08022469    -0.11430
C365        C  0.24797869  0.74981348  0.20683648    -0.09870
C366        C  0.24807203  0.74989772  0.24256767    -0.11430
C367        C  0.27554634  0.72118707  0.08027338    -0.09870
C368        C  0.28676317  0.70991867  0.05958098    -0.11430
C369        C  0.27569670  0.72137509  0.36922688    -0.09870
C370        C  0.28677426  0.70997964  0.38995815    -0.11430
C371        C  0.41828256  0.71147967  0.38997125    -0.09870
C372        C  0.44105177  0.72254765  0.36924079    -0.11430
C373        C  0.44099185  0.72191269  0.08036517    -0.09870
C374        C  0.41820439  0.71083641  0.05968135    -0.11430
C375        C  0.22111522  0.94317357  0.36925174    -0.09870
C376        C  0.20983690  0.92046899  0.38997589    -0.11430
C377        C  0.28651745  0.57931296  0.38976337    -0.09870
C378        C  0.27559027  0.55662023  0.36907165    -0.11430
C379        C  0.22148246  0.94306014  0.08030876    -0.09870
C380        C  0.21024549  0.92035447  0.05962045    -0.11430
C381        C  0.27519060  0.55646594  0.08018840    -0.09870
C382        C  0.28604092  0.57915118  0.05946032    -0.11430
C383        C  0.24922954  0.99986727  0.24257185    -0.09870
C384        C  0.24923457  0.99984693  0.20683800    -0.11430
C385        C  0.23537775  0.97173947  0.60192501     0.06530
C386        C  0.23570522  0.97178033  0.64343362    -0.09620
C387        C  0.24907077  0.99982400  0.66417891     0.04030
C388        C  0.26212516  0.52783952  0.64337241    -0.08140
C389        C  0.26180781  0.52782452  0.60186582     0.06520
C390        C  0.24844907  0.49977002  0.58120616    -0.07570
H391        H  0.22554731  0.95010311  0.65951294     0.12120
H392        H  0.27244733  0.54953248  0.65940163     0.09650
H393        H  0.24818390  0.49974913  0.54906293     0.09490
C394        C  0.26201554  0.52795042  0.84746834     0.06530
C395        C  0.26232955  0.52792907  0.80596078    -0.09620
C396        C  0.24905488  0.99988378  0.78523088     0.04030
C397        C  0.23547351  0.97184764  0.80605265    -0.08140
C398        C  0.23515566  0.97184240  0.84756053     0.06520
C399        C  0.24844225  0.99990115  0.86820342    -0.07570
H400        H  0.27281652  0.54961544  0.78987257     0.12120
H401        H  0.22515839  0.95014958  0.79003302     0.09650
H402        H  0.24818622  0.99990709  0.90034734     0.09490
Fe403      Fe  0.35317334  0.64428291  0.97469877     1.65780
Fe404      Fe  0.35354335  0.71264978  0.97491173     1.73250
Fe405      Fe  0.28433621  0.64349668  0.97462474     1.54410
O406        O  0.28102612  0.61282247  0.93153243    -0.78270
O407        O  0.32655650  0.71532351  0.51903636    -0.76580
O408        O  0.32618101  0.61423684  0.93054165    -0.80780
O409        O  0.32535061  0.61329751  0.51765505    -0.75630
O410        O  0.28145746  0.67032270  0.93050714    -0.77410
O411        O  0.38440134  0.71608778  0.51798210    -0.80150
C412        C  0.29829103  0.60366808  0.53084976     1.00610
C413        C  0.29872280  0.60380533  0.91837780     1.08050
O414        O  0.33034365  0.66681273  0.97474592    -1.09140
O415        O  0.38366954  0.71617616  0.93076368    -0.71570
O416        O  0.38416928  0.67213825  0.93172710    -0.75050
O417        O  0.28101715  0.61352802  0.51875722    -0.75740
C418        C  0.39369177  0.69909668  0.91859416     0.99520
O419        O  0.38329360  0.67124320  0.51885843    -0.73700
O420        O  0.32593508  0.71562740  0.93190047    -0.78890
C421        C  0.29899691  0.69787564  0.53099419     1.02140
C422        C  0.29888590  0.69781247  0.91856331     1.08060
O423        O  0.28119148  0.67089939  0.51767116    -0.74540
C424        C  0.39361178  0.69856532  0.53107704     1.06360
C425        C  0.26147501  0.73551700  0.60190889     0.06530
C426        C  0.26156974  0.73562513  0.64341721    -0.09620
C427        C  0.24785956  0.74969764  0.66418137     0.04030
C428        C  0.23404806  0.76366854  0.64339583    -0.08140
C429        C  0.23394773  0.76357659  0.60188782     0.06520
C430        C  0.24766099  0.74949634  0.58120794    -0.07570
H431        H  0.27226503  0.72482859  0.65947985     0.12120
H432        H  0.22344948  0.77455833  0.65943657     0.09650
H433        H  0.24759722  0.74943233  0.54905442     0.09490
C434        C  0.26178297  0.73584967  0.84754080     0.06530
C435        C  0.26176495  0.73582617  0.80602955    -0.09650
C436        C  0.24814305  0.74997735  0.78522321     0.04030
C437        C  0.23453856  0.76416114  0.80596680    -0.08140
C438        C  0.23454281  0.76419449  0.84747308     0.06520
C439        C  0.24817382  0.75004348  0.86819738    -0.07570
H440        H  0.27228007  0.72484451  0.78999851     0.12120
H441        H  0.22397980  0.77508204  0.78989339     0.09650
H442        H  0.24816707  0.75005357  0.90035196     0.09490
Fe443      Fe  0.14289546  0.85543586  0.97482008     1.65780
Fe444      Fe  0.14234515  0.78696905  0.97455155     1.73250
Fe445      Fe  0.21162899  0.85600781  0.97473405     1.54420
O446        O  0.21508974  0.88685668  0.93180388    -0.78270
O447        O  0.16912105  0.78402576  0.51874117    -0.76580
O448        O  0.16996297  0.88551679  0.93062650    -0.80780
O449        O  0.17081627  0.88637784  0.51777883    -0.75630
O450        O  0.21456325  0.82935264  0.93050168    -0.77410
O451        O  0.11137089  0.78341021  0.51750687    -0.80150
C452        C  0.19783199  0.89584367  0.53102498     1.00610
C453        C  0.19746183  0.89593547  0.91857340     1.08050
O454        O  0.16562610  0.83280398  0.97470110    -1.09140
O455        O  0.11241969  0.78372190  0.93033525    -0.71570
O456        O  0.11177305  0.82767433  0.93187321    -0.75050
O457        O  0.21498099  0.88583890  0.51897599    -0.75740
C458        C  0.10231760  0.80080717  0.91846463     0.99520
O459        O  0.11277356  0.82839699  0.51903326    -0.73700
O460        O  0.17004305  0.78409463  0.93158829    -0.78890
C461        C  0.19664405  0.80137784  0.53085412     1.02140
C462        C  0.19713994  0.80193119  0.91839127     1.08060
O463        O  0.21455535  0.82838638  0.51766461    -0.74540
C464        C  0.10228935  0.80094574  0.53091533     1.06360
C465        C  0.02610189  0.76298837  0.60191464     0.06530
C466        C  0.49793228  0.74943980  0.58125618    -0.09620
C467        C  0.46977596  0.73573407  0.60197754     0.04030
C468        C  0.46979919  0.73555390  0.64348601    -0.08140
C469        C  0.49795206  0.74908949  0.66423381     0.06520
C470        C  0.02609725  0.76280033  0.64342743    -0.07570
H471        H  0.49792303  0.74959707  0.54910548     0.12120
H472        H  0.44806345  0.72498517  0.65953703     0.09650
H473        H  0.04784479  0.77329753  0.65943732     0.09490
C474        C  0.02612702  0.76319069  0.84756662     0.06530
C475        C  0.49797640  0.74985398  0.86826337    -0.09620
C476        C  0.46981667  0.73624725  0.84758137     0.04030
C477        C  0.46981763  0.73596232  0.80607285    -0.08140
C478        C  0.49795558  0.74928665  0.78528911     0.06520
C479        C  0.02610292  0.76289421  0.80605810    -0.07570
H480        H  0.49798402  0.75007693  0.90041151     0.12120
H481        H  0.44807801  0.72545346  0.79005163     0.09650
H482        H  0.04783998  0.77321876  0.79002041     0.09490
C483        C  0.49795267  0.74908975  0.74262969    -0.09870
C484        C  0.49795866  0.74903222  0.70689471    -0.11430
C485        C  0.05490930  0.77722758  0.86920227    -0.09870
C486        C  0.07770230  0.78848266  0.88988687    -0.11430
C487        C  0.07766922  0.78851710  0.55951411    -0.09870
C488        C  0.05488124  0.77715750  0.58023360    -0.11430
C489        C  0.22052518  0.77858438  0.86908402    -0.09870
C490        C  0.20933110  0.78987103  0.88977839    -0.11430
C491        C  0.20871266  0.78919729  0.55948417    -0.09870
C492        C  0.21986221  0.77788390  0.58022468    -0.11430
C493        C  0.24797870  0.74981347  0.70683647    -0.09870
C494        C  0.24807203  0.74989772  0.74256766    -0.11430
C495        C  0.27554635  0.72118706  0.58027338    -0.09870
C496        C  0.28676318  0.70991866  0.55958097    -0.11430
C497        C  0.27569670  0.72137510  0.86922689    -0.09870
C498        C  0.28677426  0.70997965  0.88995816    -0.11430
C499        C  0.41828256  0.71147969  0.88997127    -0.09870
C500        C  0.44105177  0.72254767  0.86924080    -0.11430
C501        C  0.44099185  0.72191268  0.58036517    -0.09870
C502        C  0.41820440  0.71083639  0.55968134    -0.11430
C503        C  0.22111522  0.94317358  0.86925174    -0.09870
C504        C  0.20983689  0.92046900  0.88997588    -0.11430
C505        C  0.28651744  0.57931297  0.88976339    -0.09870
C506        C  0.27559026  0.55662023  0.86907167    -0.11430
C507        C  0.22148245  0.94306013  0.58030876    -0.09870
C508        C  0.21024548  0.92035446  0.55962045    -0.11430
C509        C  0.27519061  0.55646593  0.58018841    -0.09870
C510        C  0.28604093  0.57915117  0.55946032    -0.11430
C511        C  0.24922954  0.99986728  0.74257184    -0.09870
C512        C  0.24923457  0.99984693  0.70683800    -0.11430
C513        C  0.73537778  0.47173946  0.10192500     0.06530
C514        C  0.73570525  0.47178033  0.14343361    -0.09620
C515        C  0.74907079  0.49982399  0.16417890     0.04030
C516        C  0.76212518  0.02783952  0.14337241    -0.08140
C517        C  0.76180784  0.02782452  0.10186582     0.06520
C518        C  0.74844910  0.99977002  0.08120615    -0.07570
H519        H  0.72554734  0.45010310  0.15951293     0.12120
H520        H  0.77244736  0.04953248  0.15940162     0.09650
H521        H  0.74818392  0.99974913  0.04906292     0.09490
C522        C  0.76201557  0.02795041  0.34746834     0.06530
C523        C  0.76232957  0.02792906  0.30596077    -0.09620
C524        C  0.74905489  0.49988377  0.28523088     0.04030
C525        C  0.73547353  0.47184763  0.30605264    -0.08140
C526        C  0.73515567  0.47184239  0.34756052     0.06520
C527        C  0.74844226  0.49990115  0.36820341    -0.07570
H528        H  0.77281655  0.04961543  0.28987257     0.12120
H529        H  0.72515841  0.45014957  0.29003301     0.09650
H530        H  0.74818623  0.49990708  0.40034733     0.09490
Fe531      Fe  0.85317336  0.14428291  0.47469876     1.65780
Fe532      Fe  0.85354337  0.21264978  0.47491171     1.73250
Fe533      Fe  0.78433623  0.14349667  0.47462474     1.54410
O534        O  0.78102614  0.11282247  0.43153242    -0.78270
O535        O  0.82655650  0.21532351  0.01903638    -0.76580
O536        O  0.82618103  0.11423683  0.43054165    -0.80780
O537        O  0.82535062  0.11329752  0.01765505    -0.75630
O538        O  0.78145747  0.17032269  0.43050713    -0.77410
O539        O  0.88440134  0.21608778  0.01798211    -0.80150
C540        C  0.79829104  0.10366809  0.03084977     1.00610
C541        C  0.79872282  0.10380532  0.41837779     1.08050
O542        O  0.83034367  0.16681272  0.47474591    -1.09140
O543        O  0.88366955  0.21617615  0.43076367    -0.71570
O544        O  0.88416930  0.17213824  0.43172709    -0.75050
O545        O  0.78101716  0.11352802  0.01875722    -0.75740
C546        C  0.89369179  0.19909667  0.41859415     0.99520
O547        O  0.88329361  0.17124320  0.01885842    -0.73700
O548        O  0.82593510  0.21562739  0.43190045    -0.78890
C549        C  0.79899691  0.19787564  0.03099420     1.02140
C550        C  0.79888592  0.19781246  0.41856330     1.08060
O551        O  0.78119148  0.17089939  0.01767117    -0.74540
C552        C  0.89361178  0.19856533  0.03107704     1.06360
C553        C  0.76147501  0.23551700  0.10190890     0.06530
C554        C  0.76156975  0.23562514  0.14341721    -0.09620
C555        C  0.74785957  0.24969766  0.16418137     0.04030
C556        C  0.73404807  0.26366855  0.14339583    -0.08140
C557        C  0.73394773  0.26357659  0.10188782     0.06520
C558        C  0.74766099  0.24949634  0.08120794    -0.07570
H559        H  0.77226504  0.22482860  0.15947986     0.12120
H560        H  0.72344949  0.27455834  0.15943657     0.09650
H561        H  0.74759721  0.24943232  0.04905443     0.09490
C562        C  0.76178300  0.23584967  0.34754080     0.06530
C563        C  0.76176497  0.23582618  0.30602954    -0.09650
C564        C  0.74814307  0.24997737  0.28522322     0.04030
C565        C  0.73453859  0.26416115  0.30596681    -0.08140
C566        C  0.73454284  0.26419450  0.34747309     0.06520
C567        C  0.74817385  0.25004348  0.36819738    -0.07570
H568        H  0.77228009  0.22484452  0.28999850     0.12120
H569        H  0.72397983  0.27508206  0.28989340     0.09650
H570        H  0.74816709  0.25005357  0.40035196     0.09490
Fe571      Fe  0.64289548  0.35543586  0.47482007     1.65780
Fe572      Fe  0.64234517  0.28696905  0.47455155     1.73250
Fe573      Fe  0.71162901  0.35600780  0.47473405     1.54420
O574        O  0.71508977  0.38685668  0.43180389    -0.78270
O575        O  0.66912105  0.28402575  0.01874115    -0.76580
O576        O  0.66996299  0.38551678  0.43062649    -0.80780
O577        O  0.67081629  0.38637784  0.01777884    -0.75630
O578        O  0.71456327  0.32935264  0.43050168    -0.77410
O579        O  0.61137089  0.28341020  0.01750686    -0.80150
C580        C  0.69783201  0.39584366  0.03102498     1.00610
C581        C  0.69746185  0.39593546  0.41857340     1.08050
O582        O  0.66562612  0.33280397  0.47470110    -1.09140
O583        O  0.61241971  0.28372189  0.43033524    -0.71570
O584        O  0.61177307  0.32767433  0.43187321    -0.75050
O585        O  0.71498101  0.38583889  0.01897598    -0.75740
C586        C  0.60231762  0.30080717  0.41846462     0.99520
O587        O  0.61277357  0.32839699  0.01903327    -0.73700
O588        O  0.67004308  0.28409463  0.43158830    -0.78890
C589        C  0.69664405  0.30137783  0.03085410     1.02140
C590        C  0.69713997  0.30193119  0.41839128     1.08060
O591        O  0.71455535  0.32838637  0.01766459    -0.74540
C592        C  0.60228935  0.30094574  0.03091533     1.06360
C593        C  0.52610190  0.26298836  0.10191464     0.06530
C594        C  0.99793229  0.24943979  0.08125618    -0.09620
C595        C  0.96977596  0.23573407  0.10197754     0.04030
C596        C  0.96979920  0.23555389  0.14348601    -0.08140
C597        C  0.99795206  0.24908947  0.16423381     0.06520
C598        C  0.52609726  0.26280031  0.14342743    -0.07570
H599        H  0.99792303  0.24959707  0.04910548     0.12120
H600        H  0.94806346  0.22498516  0.15953704     0.09650
H601        H  0.54784480  0.27329750  0.15943732     0.09490
C602        C  0.52612703  0.26319068  0.34756662     0.06530
C603        C  0.99797642  0.24985397  0.36826336    -0.09620
C604        C  0.96981668  0.23624723  0.34758136     0.04030
C605        C  0.96981764  0.23596231  0.30607285    -0.08140
C606        C  0.99795559  0.24928664  0.28528911     0.06520
C607        C  0.52610294  0.26289420  0.30605810    -0.07570
H608        H  0.99798403  0.25007692  0.40041150     0.12120
H609        H  0.94807802  0.22545344  0.29005162     0.09650
H610        H  0.54783999  0.27321874  0.29002041     0.09490
C611        C  0.99795269  0.24908974  0.24262968    -0.09870
C612        C  0.99795867  0.24903220  0.20689470    -0.11430
C613        C  0.55490932  0.27722757  0.36920227    -0.09870
C614        C  0.57770232  0.28848265  0.38988687    -0.11430
C615        C  0.57766923  0.28851709  0.05951411    -0.09870
C616        C  0.55488124  0.27715749  0.08023360    -0.11430
C617        C  0.72052521  0.27858438  0.36908403    -0.09870
C618        C  0.70933112  0.28987103  0.38977840    -0.11430
C619        C  0.70871266  0.28919728  0.05948416    -0.09870
C620        C  0.71986221  0.27788389  0.08022468    -0.11430
C621        C  0.74797872  0.24981349  0.20683647    -0.09870
C622        C  0.74807206  0.24989774  0.24256767    -0.11430
C623        C  0.77554635  0.22118706  0.08027339    -0.09870
C624        C  0.78676318  0.20991866  0.05958099    -0.11430
C625        C  0.77569671  0.22137509  0.36922688    -0.09870
C626        C  0.78677427  0.20997964  0.38995815    -0.11430
C627        C  0.91828257  0.21147968  0.38997126    -0.09870
C628        C  0.94105179  0.22254766  0.36924079    -0.11430
C629        C  0.94099186  0.22191267  0.08036517    -0.09870
C630        C  0.91820440  0.21083640  0.05968135    -0.11430
C631        C  0.72111524  0.44317357  0.36925173    -0.09870
C632        C  0.70983692  0.42046899  0.38997588    -0.11430
C633        C  0.78651747  0.07931296  0.38976338    -0.09870
C634        C  0.77559028  0.05662022  0.36907166    -0.11430
C635        C  0.72148248  0.44306013  0.08030875    -0.09870
C636        C  0.71024550  0.42035446  0.05962045    -0.11430
C637        C  0.77519063  0.05646594  0.08018841    -0.09870
C638        C  0.78604094  0.07915117  0.05946032    -0.11430
C639        C  0.74922955  0.49986727  0.24257184    -0.09870
C640        C  0.74923458  0.49984693  0.20683799    -0.11430
C641        C  0.73537778  0.47173946  0.60192502     0.06530
C642        C  0.73570525  0.47178033  0.64343363    -0.09620
C643        C  0.74907079  0.49982399  0.66417891     0.04030
C644        C  0.76212518  0.02783952  0.64337240    -0.08140
C645        C  0.76180783  0.02782452  0.60186581     0.06520
C646        C  0.74844909  0.99977002  0.58120615    -0.07570
H647        H  0.72554734  0.45010310  0.65951295     0.12120
H648        H  0.77244736  0.04953248  0.65940162     0.09650
H649        H  0.74818391  0.99974913  0.54906292     0.09490
C650        C  0.76201556  0.02795042  0.84746833     0.06530
C651        C  0.76232957  0.02792907  0.80596077    -0.09620
C652        C  0.74905489  0.49988378  0.78523089     0.04030
C653        C  0.73547352  0.47184763  0.80605266    -0.08140
C654        C  0.73515566  0.47184239  0.84756054     0.06520
C655        C  0.74844225  0.49990115  0.86820343    -0.07570
H656        H  0.77281654  0.04961544  0.78987256     0.12120
H657        H  0.72515840  0.45014958  0.79003303     0.09650
H658        H  0.74818622  0.49990708  0.90034735     0.09490
Fe659      Fe  0.85317335  0.14428291  0.97469876     1.65780
Fe660      Fe  0.85354336  0.21264978  0.97491173     1.73250
Fe661      Fe  0.78433623  0.14349667  0.97462475     1.54410
O662        O  0.78102613  0.11282247  0.93153243    -0.78270
O663        O  0.82655650  0.21532352  0.51903635    -0.76580
O664        O  0.82618102  0.11423684  0.93054164    -0.80780
O665        O  0.82535063  0.11329752  0.51765506    -0.75630
O666        O  0.78145747  0.17032269  0.93050714    -0.77410
O667        O  0.88440134  0.21608779  0.51798210    -0.80150
C668        C  0.79829105  0.10366809  0.53084976     1.00610
C669        C  0.79872281  0.10380533  0.91837779     1.08050
O670        O  0.83034366  0.16681273  0.97474592    -1.09140
O671        O  0.88366955  0.21617616  0.93076368    -0.71570
O672        O  0.88416929  0.17213825  0.93172709    -0.75050
O673        O  0.78101716  0.11352801  0.51875721    -0.75740
C674        C  0.89369178  0.19909667  0.91859416     0.99520
O675        O  0.88329361  0.17124321  0.51885842    -0.73700
O676        O  0.82593509  0.21562739  0.93190048    -0.78890
C677        C  0.79899691  0.19787564  0.53099418     1.02140
C678        C  0.79888591  0.19781246  0.91856332     1.08060
O679        O  0.78119149  0.17089939  0.51767116    -0.74540
C680        C  0.89361179  0.19856533  0.53107704     1.06360
C681        C  0.76147501  0.23551700  0.60190889     0.06530
C682        C  0.76156975  0.23562513  0.64341720    -0.09620
C683        C  0.74785957  0.24969764  0.66418137     0.04030
C684        C  0.73404807  0.26366853  0.64339583    -0.08140
C685        C  0.73394774  0.26357659  0.60188781     0.06520
C686        C  0.74766100  0.24949634  0.58120794    -0.07570
H687        H  0.77226504  0.22482859  0.65947985     0.12120
H688        H  0.72344949  0.27455833  0.65943657     0.09650
H689        H  0.74759722  0.24943232  0.54905442     0.09490
C690        C  0.76178298  0.23584966  0.84754080     0.06530
C691        C  0.76176496  0.23582616  0.80602955    -0.09650
C692        C  0.74814306  0.24997734  0.78522321     0.04030
C693        C  0.73453857  0.26416113  0.80596680    -0.08140
C694        C  0.73454282  0.26419448  0.84747308     0.06520
C695        C  0.74817383  0.25004347  0.86819738    -0.07570
H696        H  0.77228008  0.22484451  0.78999851     0.12120
H697        H  0.72397981  0.27508203  0.78989339     0.09650
H698        H  0.74816707  0.25005356  0.90035196     0.09490
Fe699      Fe  0.64289547  0.35543585  0.97482008     1.65780
Fe700      Fe  0.64234516  0.28696904  0.97455154     1.73250
Fe701      Fe  0.71162900  0.35600779  0.97473405     1.54420
O702        O  0.71508975  0.38685666  0.93180388    -0.78270
O703        O  0.66912106  0.28402576  0.51874117    -0.76580
O704        O  0.66996298  0.38551678  0.93062651    -0.80780
O705        O  0.67081630  0.38637785  0.51777882    -0.75630
O706        O  0.71456326  0.32935262  0.93050168    -0.77410
O707        O  0.61137090  0.28341022  0.51750686    -0.80150
C708        C  0.69783202  0.39584367  0.53102498     1.00610
C709        C  0.69746184  0.39593546  0.91857340     1.08050
O710        O  0.66562611  0.33280397  0.97470110    -1.09140
O711        O  0.61241969  0.28372189  0.93033525    -0.71570
O712        O  0.61177306  0.32767433  0.93187322    -0.75050
O713        O  0.71498101  0.38583889  0.51897599    -0.75740
C714        C  0.60231760  0.30080717  0.91846463     0.99520
O715        O  0.61277359  0.32839700  0.51903327    -0.73700
O716        O  0.67004306  0.28409462  0.93158828    -0.78890
C717        C  0.69664406  0.30137783  0.53085411     1.02140
C718        C  0.69713995  0.30193118  0.91839126     1.08060
O719        O  0.71455536  0.32838637  0.51766460    -0.74540
C720        C  0.60228936  0.30094575  0.53091533     1.06360
C721        C  0.52610191  0.26298839  0.60191464     0.06530
C722        C  0.99793229  0.24943982  0.58125618    -0.09620
C723        C  0.96977597  0.23573410  0.60197754     0.04030
C724        C  0.96979920  0.23555393  0.64348601    -0.08140
C725        C  0.99795207  0.24908952  0.66423381     0.06520
C726        C  0.52609726  0.26280034  0.64342742    -0.07570
H727        H  0.99792303  0.24959709  0.54910548     0.12120
H728        H  0.94806346  0.22498520  0.65953703     0.09650
H729        H  0.54784481  0.27329754  0.65943731     0.09490
C730        C  0.52612702  0.26319070  0.84756662     0.06530
C731        C  0.99797640  0.24985399  0.86826337    -0.09620
C732        C  0.96981667  0.23624726  0.84758136     0.04030
C733        C  0.96981763  0.23596234  0.80607285    -0.08140
C734        C  0.99795558  0.24928667  0.78528911     0.06520
C735        C  0.52610293  0.26289422  0.80605810    -0.07570
H736        H  0.99798402  0.25007693  0.90041151     0.12120
H737        H  0.94807801  0.22545348  0.79005162     0.09650
H738        H  0.54783998  0.27321877  0.79002041     0.09490
C739        C  0.99795268  0.24908978  0.74262968    -0.09870
C740        C  0.99795867  0.24903225  0.70689470    -0.11430
C741        C  0.55490931  0.27722759  0.86920227    -0.09870
C742        C  0.57770231  0.28848266  0.88988688    -0.11430
C743        C  0.57766924  0.28851711  0.55951410    -0.09870
C744        C  0.55488125  0.27715751  0.58023359    -0.11430
C745        C  0.72052519  0.27858437  0.86908402    -0.09870
C746        C  0.70933110  0.28987102  0.88977838    -0.11430
C747        C  0.70871267  0.28919729  0.55948417    -0.09870
C748        C  0.71986222  0.27788389  0.58022468    -0.11430
C749        C  0.74797871  0.24981347  0.70683647    -0.09870
C750        C  0.74807204  0.24989771  0.74256766    -0.11430
C751        C  0.77554636  0.22118706  0.58027337    -0.09870
C752        C  0.78676319  0.20991866  0.55958097    -0.11430
C753        C  0.77569671  0.22137509  0.86922689    -0.09870
C754        C  0.78677426  0.20997964  0.88995816    -0.11430
C755        C  0.91828256  0.21147969  0.88997126    -0.09870
C756        C  0.94105177  0.22254767  0.86924079    -0.11430
C757        C  0.94099186  0.22191270  0.58036517    -0.09870
C758        C  0.91820440  0.21083641  0.55968134    -0.11430
C759        C  0.72111522  0.44317357  0.86925175    -0.09870
C760        C  0.70983690  0.42046899  0.88997589    -0.11430
C761        C  0.78651745  0.07931297  0.88976338    -0.09870
C762        C  0.77559027  0.05662023  0.86907166    -0.11430
C763        C  0.72148248  0.44306013  0.58030876    -0.09870
C764        C  0.71024550  0.42035446  0.55962046    -0.11430
C765        C  0.77519063  0.05646593  0.58018840    -0.09870
C766        C  0.78604095  0.07915117  0.55946032    -0.11430
C767        C  0.74922955  0.49986727  0.74257185    -0.09870
C768        C  0.74923458  0.49984693  0.70683801    -0.11430
C769        C  0.73537779  0.97173947  0.10192501     0.06530
C770        C  0.73570526  0.97178033  0.14343362    -0.09620
C771        C  0.74907080  0.99982400  0.16417891     0.04030
C772        C  0.76212517  0.52783951  0.14337240    -0.08140
C773        C  0.76180782  0.52782452  0.10186581     0.06520
C774        C  0.74844909  0.49977002  0.08120614    -0.07570
H775        H  0.72554735  0.95010310  0.15951294     0.12120
H776        H  0.77244734  0.54953248  0.15940161     0.09650
H777        H  0.74818391  0.49974913  0.04906291     0.09490
C778        C  0.76201556  0.52795041  0.34746832     0.06530
C779        C  0.76232956  0.52792906  0.30596076    -0.09620
C780        C  0.74905490  0.99988377  0.28523089     0.04030
C781        C  0.73547353  0.97184763  0.30605265    -0.08140
C782        C  0.73515567  0.97184239  0.34756053     0.06520
C783        C  0.74844227  0.99990115  0.36820342    -0.07570
H784        H  0.77281653  0.54961543  0.28987255     0.12120
H785        H  0.72515841  0.95014957  0.29003302     0.09650
H786        H  0.74818623  0.99990708  0.40034734     0.09490
Fe787      Fe  0.85317335  0.64428290  0.47469876     1.65780
Fe788      Fe  0.85354336  0.71264977  0.47491171     1.73250
Fe789      Fe  0.78433622  0.64349666  0.47462474     1.54410
O790        O  0.78102613  0.61282246  0.43153242    -0.78270
O791        O  0.82655649  0.71532351  0.01903637    -0.76580
O792        O  0.82618102  0.61423683  0.43054164    -0.80780
O793        O  0.82535062  0.61329752  0.01765506    -0.75630
O794        O  0.78145746  0.67032268  0.43050713    -0.77410
O795        O  0.88440133  0.71608779  0.01798211    -0.80150
C796        C  0.79829104  0.60366809  0.03084976     1.00610
C797        C  0.79872281  0.60380532  0.41837778     1.08050
O798        O  0.83034366  0.66681271  0.47474591    -1.09140
O799        O  0.88366954  0.71617614  0.43076366    -0.71570
O800        O  0.88416929  0.67213823  0.43172709    -0.75050
O801        O  0.78101715  0.61352802  0.01875722    -0.75740
C802        C  0.89369177  0.69909666  0.41859415     0.99520
O803        O  0.88329360  0.67124321  0.01885843    -0.73700
O804        O  0.82593509  0.71562738  0.43190046    -0.78890
C805        C  0.79899690  0.69787564  0.03099420     1.02140
C806        C  0.79888590  0.69781245  0.41856330     1.08060
O807        O  0.78119147  0.67089939  0.01767117    -0.74540
C808        C  0.89361178  0.69856533  0.03107704     1.06360
C809        C  0.76147501  0.73551700  0.10190890     0.06530
C810        C  0.76156974  0.73562514  0.14341721    -0.09620
C811        C  0.74785957  0.74969765  0.16418137     0.04030
C812        C  0.73404807  0.76366855  0.14339583    -0.08140
C813        C  0.73394774  0.76357660  0.10188782     0.06520
C814        C  0.74766099  0.74949635  0.08120795    -0.07570
H815        H  0.77226503  0.72482859  0.15947986     0.12120
H816        H  0.72344950  0.77455835  0.15943657     0.09650
H817        H  0.74759722  0.74943233  0.04905443     0.09490
C818        C  0.76178298  0.73584965  0.34754080     0.06530
C819        C  0.76176496  0.73582616  0.30602955    -0.09650
C820        C  0.74814306  0.74997735  0.28522322     0.04030
C821        C  0.73453858  0.76416114  0.30596681    -0.08140
C822        C  0.73454282  0.76419448  0.34747309     0.06520
C823        C  0.74817383  0.75004347  0.36819738    -0.07570
H824        H  0.77228008  0.72484451  0.28999850     0.12120
H825        H  0.72397982  0.77508205  0.28989340     0.09650
H826        H  0.74816707  0.75005355  0.40035197     0.09490
Fe827      Fe  0.64289547  0.85543585  0.47482008     1.65780
Fe828      Fe  0.64234516  0.78696904  0.47455155     1.73250
Fe829      Fe  0.71162901  0.85600780  0.47473405     1.54420
O830        O  0.71508976  0.88685667  0.43180389    -0.78270
O831        O  0.66912106  0.78402576  0.01874116    -0.76580
O832        O  0.66996298  0.88551678  0.43062651    -0.80780
O833        O  0.67081630  0.88637785  0.01777883    -0.75630
O834        O  0.71456327  0.82935263  0.43050168    -0.77410
O835        O  0.61137090  0.78341021  0.01750686    -0.80150
C836        C  0.69783202  0.89584367  0.03102498     1.00610
C837        C  0.69746184  0.89593546  0.41857340     1.08050
O838        O  0.66562611  0.83280397  0.47470111    -1.09140
O839        O  0.61241970  0.78372188  0.43033526    -0.71570
O840        O  0.61177306  0.82767432  0.43187321    -0.75050
O841        O  0.71498101  0.88583890  0.01897598    -0.75740
C842        C  0.60231761  0.80080716  0.41846463     0.99520
O843        O  0.61277358  0.82839700  0.01903328    -0.73700
O844        O  0.67004306  0.78409463  0.43158829    -0.78890
C845        C  0.69664406  0.80137784  0.03085410     1.02140
C846        C  0.69713995  0.80193118  0.41839128     1.08060
O847        O  0.71455536  0.82838637  0.01766459    -0.74540
C848        C  0.60228936  0.80094575  0.03091533     1.06360
C849        C  0.52610190  0.76298837  0.10191464     0.06530
C850        C  0.99793228  0.74943981  0.08125618    -0.09620
C851        C  0.96977596  0.73573409  0.10197754     0.04030
C852        C  0.96979919  0.73555391  0.14348601    -0.08140
C853        C  0.99795206  0.74908950  0.16423381     0.06520
C854        C  0.52609726  0.76280032  0.14342742    -0.07570
H855        H  0.99792302  0.74959709  0.04910548     0.12120
H856        H  0.94806345  0.72498518  0.15953704     0.09650
H857        H  0.54784480  0.77329752  0.15943731     0.09490
C858        C  0.52612703  0.76319068  0.34756662     0.06530
C859        C  0.99797640  0.74985396  0.36826336    -0.09620
C860        C  0.96981667  0.73624723  0.34758136     0.04030
C861        C  0.96981763  0.73596231  0.30607284    -0.08140
C862        C  0.99795558  0.74928664  0.28528910     0.06520
C863        C  0.52610293  0.76289420  0.30605810    -0.07570
H864        H  0.99798402  0.75007691  0.40041150     0.12120
H865        H  0.94807801  0.72545345  0.29005162     0.09650
H866        H  0.54783998  0.77321875  0.29002041     0.09490
C867        C  0.99795268  0.74908975  0.24262968    -0.09870
C868        C  0.99795866  0.74903222  0.20689470    -0.11430
C869        C  0.55490931  0.77722757  0.36920227    -0.09870
C870        C  0.57770231  0.78848265  0.38988688    -0.11430
C871        C  0.57766923  0.78851711  0.05951411    -0.09870
C872        C  0.55488125  0.77715750  0.08023359    -0.11430
C873        C  0.72052520  0.77858437  0.36908403    -0.09870
C874        C  0.70933111  0.78987102  0.38977840    -0.11430
C875        C  0.70871267  0.78919729  0.05948416    -0.09870
C876        C  0.71986222  0.77788390  0.08022468    -0.11430
C877        C  0.74797871  0.74981348  0.20683647    -0.09870
C878        C  0.74807204  0.74989773  0.24256767    -0.11430
C879        C  0.77554635  0.72118706  0.08027339    -0.09870
C880        C  0.78676317  0.70991866  0.05958098    -0.11430
C881        C  0.77569670  0.72137508  0.36922688    -0.09870
C882        C  0.78677426  0.70997963  0.38995815    -0.11430
C883        C  0.91828256  0.71147967  0.38997125    -0.09870
C884        C  0.94105177  0.72254765  0.36924079    -0.11430
C885        C  0.94099185  0.72191269  0.08036518    -0.09870
C886        C  0.91820439  0.71083641  0.05968135    -0.11430
C887        C  0.72111523  0.94317357  0.36925174    -0.09870
C888        C  0.70983691  0.92046899  0.38997589    -0.11430
C889        C  0.78651746  0.57931296  0.38976337    -0.09870
C890        C  0.77559027  0.55662022  0.36907165    -0.11430
C891        C  0.72148249  0.94306014  0.08030876    -0.09870
C892        C  0.71024551  0.92035447  0.05962045    -0.11430
C893        C  0.77519062  0.55646593  0.08018840    -0.09870
C894        C  0.78604094  0.57915117  0.05946032    -0.11430
C895        C  0.74922956  0.99986727  0.24257185    -0.09870
C896        C  0.74923459  0.99984693  0.20683800    -0.11430
C897        C  0.73537778  0.97173946  0.60192501     0.06530
C898        C  0.73570525  0.97178033  0.64343362    -0.09620
C899        C  0.74907080  0.99982400  0.66417891     0.04030
C900        C  0.76212517  0.52783951  0.64337241    -0.08140
C901        C  0.76180783  0.52782452  0.60186582     0.06520
C902        C  0.74844909  0.49977002  0.58120616    -0.07570
H903        H  0.72554734  0.95010310  0.65951294     0.12120
H904        H  0.77244735  0.54953248  0.65940162     0.09650
H905        H  0.74818391  0.49974912  0.54906293     0.09490
C906        C  0.76201555  0.52795041  0.84746834     0.06530
C907        C  0.76232956  0.52792906  0.80596078    -0.09620
C908        C  0.74905490  0.99988378  0.78523088     0.04030
C909        C  0.73547353  0.97184764  0.80605265    -0.08140
C910        C  0.73515567  0.97184239  0.84756053     0.06520
C911        C  0.74844226  0.99990115  0.86820342    -0.07570
H912        H  0.77281653  0.54961543  0.78987257     0.12120
H913        H  0.72515841  0.95014958  0.79003302     0.09650
H914        H  0.74818622  0.99990709  0.90034734     0.09490
Fe915      Fe  0.85317335  0.64428291  0.97469877     1.65780
Fe916      Fe  0.85354336  0.71264978  0.97491173     1.73250
Fe917      Fe  0.78433622  0.64349667  0.97462474     1.54410
O918        O  0.78102613  0.61282247  0.93153243    -0.78270
O919        O  0.82655649  0.71532350  0.51903636    -0.76580
O920        O  0.82618102  0.61423684  0.93054165    -0.80780
O921        O  0.82535062  0.61329751  0.51765505    -0.75630
O922        O  0.78145746  0.67032269  0.93050714    -0.77410
O923        O  0.88440133  0.71608778  0.51798209    -0.80150
C924        C  0.79829104  0.60366808  0.53084976     1.00610
C925        C  0.79872281  0.60380533  0.91837779     1.08050
O926        O  0.83034366  0.66681273  0.97474591    -1.09140
O927        O  0.88366954  0.71617616  0.93076367    -0.71570
O928        O  0.88416928  0.67213825  0.93172710    -0.75050
O929        O  0.78101715  0.61352801  0.51875721    -0.75740
C930        C  0.89369177  0.69909667  0.91859416     0.99520
O931        O  0.88329360  0.67124319  0.51885842    -0.73700
O932        O  0.82593509  0.71562739  0.93190047    -0.78890
C933        C  0.79899690  0.69787563  0.53099419     1.02140
C934        C  0.79888590  0.69781246  0.91856331     1.08060
O935        O  0.78119148  0.67089938  0.51767116    -0.74540
C936        C  0.89361178  0.69856532  0.53107703     1.06360
C937        C  0.76147501  0.73551699  0.60190889     0.06530
C938        C  0.76156974  0.73562512  0.64341720    -0.09620
C939        C  0.74785957  0.74969764  0.66418137     0.04030
C940        C  0.73404807  0.76366854  0.64339582    -0.08140
C941        C  0.73394774  0.76357659  0.60188781     0.06520
C942        C  0.74766099  0.74949634  0.58120794    -0.07570
H943        H  0.77226503  0.72482858  0.65947985     0.12120
H944        H  0.72344949  0.77455833  0.65943657     0.09650
H945        H  0.74759722  0.74943232  0.54905442     0.09490
C946        C  0.76178298  0.73584966  0.84754080     0.06530
C947        C  0.76176496  0.73582616  0.80602955    -0.09650
C948        C  0.74814306  0.74997735  0.78522321     0.04030
C949        C  0.73453858  0.76416114  0.80596680    -0.08140
C950        C  0.73454282  0.76419449  0.84747308     0.06520
C951        C  0.74817383  0.75004348  0.86819738    -0.07570
H952        H  0.77228008  0.72484451  0.78999851     0.12120
H953        H  0.72397982  0.77508204  0.78989339     0.09650
H954        H  0.74816707  0.75005357  0.90035196     0.09490
Fe955      Fe  0.64289548  0.85543586  0.97482008     1.65780
Fe956      Fe  0.64234517  0.78696905  0.97455154     1.73250
Fe957      Fe  0.71162901  0.85600780  0.97473404     1.54420
O958        O  0.71508976  0.88685668  0.93180388    -0.78270
O959        O  0.66912106  0.78402575  0.51874116    -0.76580
O960        O  0.66996298  0.88551679  0.93062650    -0.80780
O961        O  0.67081629  0.88637784  0.51777883    -0.75630
O962        O  0.71456327  0.82935264  0.93050167    -0.77410
O963        O  0.61137090  0.78341021  0.51750687    -0.80150
C964        C  0.69783201  0.89584366  0.53102498     1.00610
C965        C  0.69746184  0.89593546  0.91857340     1.08050
O966        O  0.66562612  0.83280398  0.97470110    -1.09140
O967        O  0.61241970  0.78372189  0.93033525    -0.71570
O968        O  0.61177306  0.82767433  0.93187322    -0.75050
O969        O  0.71498101  0.88583889  0.51897599    -0.75740
C970        C  0.60231761  0.80080717  0.91846463     0.99520
O971        O  0.61277357  0.82839699  0.51903327    -0.73700
O972        O  0.67004307  0.78409463  0.93158829    -0.78890
C973        C  0.69664405  0.80137783  0.53085411     1.02140
C974        C  0.69713996  0.80193119  0.91839127     1.08060
O975        O  0.71455536  0.82838637  0.51766460    -0.74540
C976        C  0.60228935  0.80094574  0.53091533     1.06360
C977        C  0.52610190  0.76298836  0.60191464     0.06530
C978        C  0.99793227  0.74943980  0.58125618    -0.09620
C979        C  0.96977595  0.73573408  0.60197754     0.04030
C980        C  0.96979919  0.73555390  0.64348601    -0.08140
C981        C  0.99795205  0.74908949  0.66423381     0.06520
C982        C  0.52609726  0.76280032  0.64342743    -0.07570
H983        H  0.99792302  0.74959707  0.54910548     0.12120
H984        H  0.94806344  0.72498517  0.65953703     0.09650
H985        H  0.54784480  0.77329752  0.65943732     0.09490
C986        C  0.52612702  0.76319069  0.84756663     0.06530
C987        C  0.99797640  0.74985398  0.86826336    -0.09620
C988        C  0.96981667  0.73624725  0.84758136     0.04030
C989        C  0.96981762  0.73596233  0.80607285    -0.08140
C990        C  0.99795557  0.74928666  0.78528910     0.06520
C991        C  0.52610293  0.76289421  0.80605811    -0.07570
H992        H  0.99798402  0.75007693  0.90041150     0.12120
H993        H  0.94807800  0.72545346  0.79005162     0.09650
H994        H  0.54783998  0.77321875  0.79002042     0.09490
C995        C  0.99795267  0.74908976  0.74262968    -0.09870
C996        C  0.99795865  0.74903222  0.70689470    -0.11430
C997        C  0.55490931  0.77722758  0.86920228    -0.09870
C998        C  0.57770231  0.78848266  0.88988688    -0.11430
C999        C  0.57766923  0.78851710  0.55951411    -0.09870
C1000       C  0.55488124  0.77715750  0.58023360    -0.11430
C1001       C  0.72052520  0.77858438  0.86908402    -0.09870
C1002       C  0.70933111  0.78987103  0.88977838    -0.11430
C1003       C  0.70871266  0.78919728  0.55948417    -0.09870
C1004       C  0.71986222  0.77788389  0.58022468    -0.11430
C1005       C  0.74797871  0.74981347  0.70683647    -0.09870
C1006       C  0.74807204  0.74989772  0.74256766    -0.11430
C1007       C  0.77554635  0.72118705  0.58027338    -0.09870
C1008       C  0.78676318  0.70991865  0.55958097    -0.11430
C1009       C  0.77569670  0.72137509  0.86922689    -0.09870
C1010       C  0.78677426  0.70997964  0.88995816    -0.11430
C1011       C  0.91828256  0.71147969  0.88997126    -0.09870
C1012       C  0.94105177  0.72254767  0.86924079    -0.11430
C1013       C  0.94099185  0.72191268  0.58036517    -0.09870
C1014       C  0.91820439  0.71083639  0.55968134    -0.11430
C1015       C  0.72111523  0.94317358  0.86925174    -0.09870
C1016       C  0.70983690  0.92046900  0.88997589    -0.11430
C1017       C  0.78651745  0.57931297  0.88976338    -0.09870
C1018       C  0.77559027  0.55662023  0.86907167    -0.11430
C1019       C  0.72148247  0.94306013  0.58030876    -0.09870
C1020       C  0.71024550  0.92035446  0.55962046    -0.11430
C1021       C  0.77519062  0.55646593  0.58018841    -0.09870
C1022       C  0.78604094  0.57915116  0.55946032    -0.11430
C1023       C  0.74922956  0.99986728  0.74257184    -0.09870
C1024       C  0.74923459  0.99984693  0.70683800    -0.11430
loop_ 
_geom_bond_atom_site_label_1 
_geom_bond_atom_site_label_2 
_geom_bond_distance 
_geom_bond_site_symmetry_2 
_ccdc_geom_bond_type 
C1            C2   1.401       .  A
C1          C262   1.402       .  A
C1          C123   1.441       .  S
C2            C3   1.403       .  A
C2            H7   1.085       .  S
C3          C260   1.402       .  A
C3          C128   1.439       .  S
C4            C5   1.401       .  A
C4          C259   1.402   1_545  A
C4            H8   1.085       .  S
C5            C6   1.401   1_545  A
C5          C125   1.441       .  S
C6          C257   1.402       .  A
C6            H9   1.085       .  S
C10          C11   1.401       .  A
C10         C271   1.402   1_545  A
C10         C122   1.441       .  S
C11         C268   1.402   1_545  A
C11          H16   1.085       .  S
C12          C13   1.402       .  A
C12         C267   1.402       .  A
C12         C127   1.439       .  S
C13          C14   1.401       .  A
C13          H17   1.085       .  S
C14          C15   1.402       .  A
C14         C119   1.441       .  S
C15         C266   1.402       .  A
C15          H18   1.085       .  S
Fe19         O30   1.983       .  S
Fe19         O32   2.063       .  S
Fe19         O24   2.062       .  S
Fe19        O163   2.062       .  S
Fe19        O153   2.063       .  S
Fe20         O30   1.984       .  S
Fe20         O31   2.065       .  S
Fe20         O36   2.064       .  S
Fe20        O151   2.063       .  S
Fe20        O155   2.066       .  S
Fe21         O30   1.984       .  S
Fe21         O26   2.064       .  S
Fe21         O22   2.066       .  S
Fe21        O167   2.065       .  S
Fe21        O161   2.065       .  S
O22          C29   1.267       .  A
O23        Fe148   2.063   1_554  S
O23          C37   1.267       .  A
O24          C29   1.266       .  A
O25        Fe147   2.063   1_554  S
O25          C28   1.267       .  A
O26          C38   1.267       .  A
O27        Fe148   2.066   1_554  S
O27          C40   1.267       .  A
C28         C126   1.434       .  S
C28          O33   1.267       .  A
C29         C121   1.434       .  S
O31          C34   1.267       .  A
O32          C34   1.267       .  A
O33        Fe149   2.065   1_554  S
C34         C115   1.434       .  S
O35        Fe147   2.062   1_554  S
O35          C40   1.266       .  A
O36          C38   1.267       .  A
C37         C112   1.434       .  S
C37          O39   1.267       .  A
C38         C114   1.434       .  S
O39        Fe149   2.065   1_554  S
C40         C118   1.434       .  S
C41          C42   1.401       .  A
C41          C46   1.401       .  A
C41         C111   1.441       .  S
C42          C43   1.402       .  A
C42          H47   1.085       .  S
C43          C44   1.402       .  A
C43         C109   1.439       .  S
C44          C45   1.401       .  A
C44          H48   1.084       .  S
C45          C46   1.401       .  A
C45         C108   1.440       .  S
C46          H49   1.085       .  S
C50          C51   1.401       .  A
C50          C55   1.401       .  A
C50         C113   1.441       .  S
C51          C52   1.402       .  A
C51          H56   1.085       .  S
C52          C53   1.402       .  A
C52         C110   1.439       .  S
C53          C54   1.401       .  A
C53          H57   1.084       .  S
C54          C55   1.401       .  A
C54         C105   1.440       .  S
C55          H58   1.085       .  S
Fe59         O70   1.983       .  S
Fe59         O72   2.065       .  S
Fe59         O64   2.063       .  S
Fe59        O203   2.063       .  S
Fe59        O193   2.064       .  S
Fe60         O70   1.984       .  S
Fe60         O71   2.064       .  S
Fe60         O76   2.064       .  S
Fe60        O191   2.063       .  S
Fe60        O195   2.065       .  S
Fe61         O70   1.984       .  S
Fe61         O66   2.063       .  S
Fe61         O62   2.065       .  S
Fe61        O207   2.065       .  S
Fe61        O201   2.064       .  S
O62          C69   1.267       .  A
O63        Fe188   2.063   1_554  S
O63          C77   1.267       .  A
O64          C69   1.267       .  A
O65        Fe187   2.064   1_554  S
O65          C68   1.267       .  A
O66          C78   1.267       .  A
O67        Fe188   2.065   1_554  S
O67          C80   1.267       .  A
C68         C124   1.434       .  S
C68          O73   1.267       .  A
C69         C120   1.434       .  S
O71          C74   1.267       .  A
O72          C74   1.267       .  A
O73        Fe189   2.064   1_554  S
C74         C102   1.435       .  S
O75        Fe187   2.063   1_554  S
O75          C80   1.267       .  A
O76          C78   1.267       .  A
C77         C107   1.434       .  S
C77          O79   1.267       .  A
C78         C106   1.434       .  S
O79        Fe189   2.065   1_554  S
C80         C103   1.435       .  S
C81          C86   1.401       .  A
C81         C594   1.402   1_455  A
C81         C104   1.441       .  S
C82          C83   1.402       .  A
C82         C593   1.402       .  A
C82          H87   1.085       .  S
C83          C84   1.401       .  A
C83         C117   1.441       .  S
C84          C85   1.402       .  A
C84          H88   1.083       .  S
C85         C598   1.403       .  A
C85         C100   1.439       .  S
C86         C597   1.403   1_455  A
C86          H89   1.083       .  S
C90          C95   1.401       .  A
C90         C603   1.401   1_455  A
C90         C101   1.441       .  S
C91          C92   1.401       .  A
C91         C602   1.401       .  A
C91          H96   1.085       .  S
C92          C93   1.401       .  A
C92         C116   1.441       .  S
C93          C94   1.402       .  A
C93          H97   1.083       .  S
C94         C607   1.402       .  A
C94          C99   1.439       .  S
C95         C606   1.402   1_455  A
C95          H98   1.083       .  S
C99         C100   1.206       .  T
C101        C102   1.206       .  T
C103        C104   1.206       .  T
C105        C106   1.206       .  T
C107        C108   1.206       .  T
C109        C110   1.206       .  T
C111        C112   1.206       .  T
C113        C114   1.206       .  T
C115        C116   1.206       .  T
C117        C118   1.206       .  T
C119        C120   1.206       .  T
C121        C122   1.206       .  T
C123        C124   1.206       .  T
C125        C126   1.206       .  T
C127        C128   1.206       .  T
C129        C130   1.401       .  A
C129        C390   1.402       .  A
C129        C251   1.441       .  S
C130        C131   1.403       .  A
C130        H135   1.085       .  S
C131        C388   1.402       .  A
C131        C256   1.439       .  S
C132        C387   1.402   1_545  A
C132        C133   1.401       .  A
C132        H136   1.085       .  S
C133        C134   1.401   1_545  A
C133        C253   1.441       .  S
C134        C385   1.402       .  A
C134        H137   1.085       .  S
C138        C139   1.401       .  A
C138        C399   1.402   1_545  A
C138        C250   1.441       .  S
C139        C396   1.402   1_545  A
C139        H144   1.085       .  S
C140        C395   1.402       .  A
C140        C141   1.402       .  A
C140        C255   1.439       .  S
C141        C142   1.401       .  A
C141        H145   1.085       .  S
C142        C143   1.402       .  A
C142        C247   1.441       .  S
C143        C394   1.402       .  A
C143        H146   1.085       .  S
Fe147       O158   1.983       .  S
Fe147       O160   2.063       .  S
Fe147       O152   2.062       .  S
Fe148       O158   1.984       .  S
Fe148       O159   2.065       .  S
Fe148       O164   2.064       .  S
Fe149       O158   1.984       .  S
Fe149       O154   2.064       .  S
Fe149       O150   2.066       .  S
O150        C157   1.267       .  A
O151        C165   1.267       .  A
O152        C157   1.266       .  A
O153        C156   1.267       .  A
O154        C166   1.267       .  A
O155        C168   1.267       .  A
C156        C254   1.434       .  S
C156        O161   1.267       .  A
C157        C249   1.434       .  S
O159        C162   1.267       .  A
O160        C162   1.267       .  A
C162        C243   1.434       .  S
O163        C168   1.266       .  A
O164        C166   1.267       .  A
C165        C240   1.434       .  S
C165        O167   1.267       .  A
C166        C242   1.434       .  S
C168        C246   1.434       .  S
C169        C170   1.401       .  A
C169        C174   1.401       .  A
C169        C239   1.441       .  S
C170        C171   1.402       .  A
C170        H175   1.085       .  S
C171        C172   1.402       .  A
C171        C237   1.439       .  S
C172        C173   1.401       .  A
C172        H176   1.084       .  S
C173        C174   1.401       .  A
C173        C236   1.440       .  S
C174        H177   1.085       .  S
C178        C179   1.401       .  A
C178        C183   1.401       .  A
C178        C241   1.441       .  S
C179        C180   1.402       .  A
C179        H184   1.085       .  S
C180        C181   1.402       .  A
C180        C238   1.439       .  S
C181        C182   1.401       .  A
C181        H185   1.084       .  S
C182        C183   1.401       .  A
C182        C233   1.440       .  S
C183        H186   1.085       .  S
Fe187       O198   1.983       .  S
Fe187       O200   2.065       .  S
Fe187       O192   2.063       .  S
Fe188       O198   1.984       .  S
Fe188       O199   2.064       .  S
Fe188       O204   2.064       .  S
Fe189       O198   1.984       .  S
Fe189       O194   2.063       .  S
Fe189       O190   2.065       .  S
O190        C197   1.267       .  A
O191        C205   1.267       .  A
O192        C197   1.267       .  A
O193        C196   1.267       .  A
O194        C206   1.267       .  A
O195        C208   1.267       .  A
C196        C252   1.434       .  S
C196        O201   1.267       .  A
C197        C248   1.434       .  S
O199        C202   1.267       .  A
O200        C202   1.267       .  A
C202        C230   1.435       .  S
O203        C208   1.267       .  A
O204        C206   1.267       .  A
C205        C235   1.434       .  S
C205        O207   1.267       .  A
C206        C234   1.434       .  S
C208        C231   1.435       .  S
C209        C722   1.402   1_455  A
C209        C214   1.401       .  A
C209        C232   1.441       .  S
C210        C721   1.402       .  A
C210        C211   1.402       .  A
C210        H215   1.085       .  S
C211        C212   1.401       .  A
C211        C245   1.441       .  S
C212        C213   1.402       .  A
C212        H216   1.083       .  S
C213        C726   1.403       .  A
C213        C228   1.439       .  S
C214        C725   1.403   1_455  A
C214        H217   1.083       .  S
C218        C731   1.401   1_455  A
C218        C223   1.401       .  A
C218        C229   1.441       .  S
C219        C730   1.401       .  A
C219        C220   1.401       .  A
C219        H224   1.085       .  S
C220        C221   1.401       .  A
C220        C244   1.441       .  S
C221        C222   1.402       .  A
C221        H225   1.083       .  S
C222        C735   1.402       .  A
C222        C227   1.439       .  S
C223        C734   1.402   1_455  A
C223        H226   1.083       .  S
C227        C228   1.206       .  T
C229        C230   1.206       .  T
C231        C232   1.206       .  T
C233        C234   1.206       .  T
C235        C236   1.206       .  T
C237        C238   1.206       .  T
C239        C240   1.206       .  T
C241        C242   1.206       .  T
C243        C244   1.206       .  T
C245        C246   1.206       .  T
C247        C248   1.206       .  T
C249        C250   1.206       .  T
C251        C252   1.206       .  T
C253        C254   1.206       .  T
C255        C256   1.206       .  T
C257        C258   1.401       .  A
C257        C379   1.441       .  S
C258        C259   1.403       .  A
C258        H263   1.085       .  S
C259        C384   1.439       .  S
C260        C261   1.401       .  A
C260        H264   1.085       .  S
C261        C262   1.401       .  A
C261        C381   1.441       .  S
C262        H265   1.085       .  S
C266        C267   1.401       .  A
C266        C378   1.441       .  S
C267        H272   1.085       .  S
C268        C269   1.402       .  A
C268        C383   1.439       .  S
C269        C270   1.401       .  A
C269        H273   1.085       .  S
C270        C271   1.402       .  A
C270        C375   1.441       .  S
C271        H274   1.085       .  S
Fe275       O286   1.983       .  S
Fe275       O419   2.062       .  S
Fe275       O409   2.063       .  S
Fe275       O288   2.063       .  S
Fe275       O280   2.062       .  S
Fe276       O286   1.984       .  S
Fe276       O407   2.063       .  S
Fe276       O411   2.066       .  S
Fe276       O287   2.065       .  S
Fe276       O292   2.064       .  S
Fe277       O286   1.984       .  S
Fe277       O423   2.065       .  S
Fe277       O282   2.064       .  S
Fe277       O417   2.065       .  S
Fe277       O278   2.066       .  S
O278        C285   1.267       .  A
O279       Fe404   2.063   1_554  S
O279        C293   1.267       .  A
O280        C285   1.266       .  A
O281       Fe403   2.063   1_554  S
O281        C284   1.267       .  A
O282        C294   1.267       .  A
O283       Fe404   2.066   1_554  S
O283        C296   1.267       .  A
C284        C382   1.434       .  S
C284        O289   1.267       .  A
C285        C377   1.434       .  S
O287        C290   1.267       .  A
O288        C290   1.267       .  A
O289       Fe405   2.065   1_554  S
C290        C371   1.434       .  S
O291       Fe403   2.062   1_554  S
O291        C296   1.266       .  A
O292        C294   1.267       .  A
C293        C368   1.434       .  S
C293        O295   1.267       .  A
C294        C370   1.434       .  S
O295       Fe405   2.065   1_554  S
C296        C374   1.434       .  S
C297        C298   1.401       .  A
C297        C302   1.401       .  A
C297        C367   1.441       .  S
C298        C299   1.402       .  A
C298        H303   1.085       .  S
C299        C300   1.402       .  A
C299        C365   1.439       .  S
C300        C301   1.401       .  A
C300        H304   1.084       .  S
C301        C302   1.401       .  A
C301        C364   1.440       .  S
C302        H305   1.085       .  S
C306        C307   1.401       .  A
C306        C311   1.401       .  A
C306        C369   1.441       .  S
C307        C308   1.402       .  A
C307        H312   1.085       .  S
C308        C309   1.402       .  A
C308        C366   1.439       .  S
C309        C310   1.401       .  A
C309        H313   1.084       .  S
C310        C311   1.401       .  A
C310        C361   1.440       .  S
C311        H314   1.085       .  S
Fe315       O326   1.983       .  S
Fe315       O459   2.063       .  S
Fe315       O449   2.064       .  S
Fe315       O328   2.065       .  S
Fe315       O320   2.063       .  S
Fe316       O326   1.984       .  S
Fe316       O447   2.063       .  S
Fe316       O451   2.065       .  S
Fe316       O327   2.064       .  S
Fe316       O332   2.064       .  S
Fe317       O326   1.984       .  S
Fe317       O463   2.065       .  S
Fe317       O322   2.063       .  S
Fe317       O457   2.064       .  S
Fe317       O318   2.065       .  S
O318        C325   1.267       .  A
O319       Fe444   2.063   1_554  S
O319        C333   1.267       .  A
O320        C325   1.267       .  A
O321       Fe443   2.064   1_554  S
O321        C324   1.267       .  A
O322        C334   1.267       .  A
O323       Fe444   2.065   1_554  S
O323        C336   1.267       .  A
C324        C380   1.434       .  S
C324        O329   1.267       .  A
C325        C376   1.434       .  S
O327        C330   1.267       .  A
O328        C330   1.267       .  A
O329       Fe445   2.064   1_554  S
C330        C358   1.435       .  S
O331       Fe443   2.063   1_554  S
O331        C336   1.267       .  A
O332        C334   1.267       .  A
C333        C363   1.434       .  S
C333        O335   1.267       .  A
C334        C362   1.434       .  S
O335       Fe445   2.065   1_554  S
C336        C359   1.435       .  S
C337        C850   1.402   1_455  A
C337        C342   1.401       .  A
C337        C360   1.441       .  S
C338        C849   1.402       .  A
C338        C339   1.402       .  A
C338        H343   1.085       .  S
C339        C340   1.401       .  A
C339        C373   1.441       .  S
C340        C341   1.402       .  A
C340        H344   1.083       .  S
C341        C854   1.403       .  A
C341        C356   1.439       .  S
C342        C853   1.403   1_455  A
C342        H345   1.083       .  S
C346        C859   1.401   1_455  A
C346        C351   1.401       .  A
C346        C357   1.441       .  S
C347        C858   1.401       .  A
C347        C348   1.401       .  A
C347        H352   1.085       .  S
C348        C349   1.401       .  A
C348        C372   1.441       .  S
C349        C350   1.402       .  A
C349        H353   1.083       .  S
C350        C863   1.402       .  A
C350        C355   1.439       .  S
C351        C862   1.402   1_455  A
C351        H354   1.083       .  S
C355        C356   1.206       .  T
C357        C358   1.206       .  T
C359        C360   1.206       .  T
C361        C362   1.206       .  T
C363        C364   1.206       .  T
C365        C366   1.206       .  T
C367        C368   1.206       .  T
C369        C370   1.206       .  T
C371        C372   1.206       .  T
C373        C374   1.206       .  T
C375        C376   1.206       .  T
C377        C378   1.206       .  T
C379        C380   1.206       .  T
C381        C382   1.206       .  T
C383        C384   1.206       .  T
C385        C386   1.401       .  A
C385        C507   1.441       .  S
C386        C387   1.403       .  A
C386        H391   1.085       .  S
C387        C512   1.439       .  S
C388        C389   1.401       .  A
C388        H392   1.085       .  S
C389        C390   1.401       .  A
C389        C509   1.441       .  S
C390        H393   1.085       .  S
C394        C395   1.401       .  A
C394        C506   1.441       .  S
C395        H400   1.085       .  S
C396        C397   1.402       .  A
C396        C511   1.439       .  S
C397        C398   1.401       .  A
C397        H401   1.085       .  S
C398        C399   1.402       .  A
C398        C503   1.441       .  S
C399        H402   1.085       .  S
Fe403       O414   1.983       .  S
Fe403       O416   2.063       .  S
Fe403       O408   2.062       .  S
Fe404       O414   1.984       .  S
Fe404       O415   2.065       .  S
Fe404       O420   2.064       .  S
Fe405       O414   1.984       .  S
Fe405       O410   2.064       .  S
Fe405       O406   2.066       .  S
O406        C413   1.267       .  A
O407        C421   1.267       .  A
O408        C413   1.266       .  A
O409        C412   1.267       .  A
O410        C422   1.267       .  A
O411        C424   1.267       .  A
C412        C510   1.434       .  S
C412        O417   1.267       .  A
C413        C505   1.434       .  S
O415        C418   1.267       .  A
O416        C418   1.267       .  A
C418        C499   1.434       .  S
O419        C424   1.266       .  A
O420        C422   1.267       .  A
C421        C496   1.434       .  S
C421        O423   1.267       .  A
C422        C498   1.434       .  S
C424        C502   1.434       .  S
C425        C426   1.401       .  A
C425        C430   1.401       .  A
C425        C495   1.441       .  S
C426        C427   1.402       .  A
C426        H431   1.085       .  S
C427        C428   1.402       .  A
C427        C493   1.439       .  S
C428        C429   1.401       .  A
C428        H432   1.084       .  S
C429        C430   1.401       .  A
C429        C492   1.440       .  S
C430        H433   1.085       .  S
C434        C435   1.401       .  A
C434        C439   1.401       .  A
C434        C497   1.441       .  S
C435        C436   1.402       .  A
C435        H440   1.085       .  S
C436        C437   1.402       .  A
C436        C494   1.439       .  S
C437        C438   1.401       .  A
C437        H441   1.084       .  S
C438        C439   1.401       .  A
C438        C489   1.440       .  S
C439        H442   1.085       .  S
Fe443       O454   1.983       .  S
Fe443       O456   2.065       .  S
Fe443       O448   2.063       .  S
Fe444       O454   1.984       .  S
Fe444       O455   2.064       .  S
Fe444       O460   2.064       .  S
Fe445       O454   1.984       .  S
Fe445       O450   2.063       .  S
Fe445       O446   2.065       .  S
O446        C453   1.267       .  A
O447        C461   1.267       .  A
O448        C453   1.267       .  A
O449        C452   1.267       .  A
O450        C462   1.267       .  A
O451        C464   1.267       .  A
C452        C508   1.434       .  S
C452        O457   1.267       .  A
C453        C504   1.434       .  S
O455        C458   1.267       .  A
O456        C458   1.267       .  A
C458        C486   1.435       .  S
O459        C464   1.267       .  A
O460        C462   1.267       .  A
C461        C491   1.434       .  S
C461        O463   1.267       .  A
C462        C490   1.434       .  S
C464        C487   1.435       .  S
C465        C978   1.402   1_455  A
C465        C470   1.401       .  A
C465        C488   1.441       .  S
C466        C977   1.402       .  A
C466        C467   1.402       .  A
C466        H471   1.085       .  S
C467        C468   1.401       .  A
C467        C501   1.441       .  S
C468        C469   1.402       .  A
C468        H472   1.083       .  S
C469        C982   1.403       .  A
C469        C484   1.439       .  S
C470        C981   1.403   1_455  A
C470        H473   1.083       .  S
C474        C987   1.401   1_455  A
C474        C479   1.401       .  A
C474        C485   1.441       .  S
C475        C986   1.401       .  A
C475        C476   1.401       .  A
C475        H480   1.085       .  S
C476        C477   1.401       .  A
C476        C500   1.441       .  S
C477        C478   1.402       .  A
C477        H481   1.083       .  S
C478        C991   1.402       .  A
C478        C483   1.439       .  S
C479        C990   1.402   1_455  A
C479        H482   1.083       .  S
C483        C484   1.206       .  T
C485        C486   1.206       .  T
C487        C488   1.206       .  T
C489        C490   1.206       .  T
C491        C492   1.206       .  T
C493        C494   1.206       .  T
C495        C496   1.206       .  T
C497        C498   1.206       .  T
C499        C500   1.206       .  T
C501        C502   1.206       .  T
C503        C504   1.206       .  T
C505        C506   1.206       .  T
C507        C508   1.206       .  T
C509        C510   1.206       .  T
C511        C512   1.206       .  T
C513        C514   1.401       .  A
C513        C774   1.402       .  A
C513        C635   1.441       .  S
C514        C515   1.403       .  A
C514        H519   1.085       .  S
C515        C772   1.402       .  A
C515        C640   1.439       .  S
C516        C771   1.402   1_545  A
C516        C517   1.401       .  A
C516        H520   1.085       .  S
C517        C518   1.401   1_545  A
C517        C637   1.441       .  S
C518        C769   1.402       .  A
C518        H521   1.085       .  S
C522        C523   1.401       .  A
C522        C783   1.402   1_545  A
C522        C634   1.441       .  S
C523        C780   1.402   1_545  A
C523        H528   1.085       .  S
C524        C779   1.402       .  A
C524        C525   1.402       .  A
C524        C639   1.439       .  S
C525        C526   1.401       .  A
C525        H529   1.085       .  S
C526        C527   1.402       .  A
C526        C631   1.441       .  S
C527        C778   1.402       .  A
C527        H530   1.085       .  S
Fe531       O542   1.983       .  S
Fe531       O675   2.062       .  S
Fe531       O665   2.063       .  S
Fe531       O544   2.063       .  S
Fe531       O536   2.062       .  S
Fe532       O542   1.984       .  S
Fe532       O663   2.063       .  S
Fe532       O667   2.066       .  S
Fe532       O543   2.065       .  S
Fe532       O548   2.064       .  S
Fe533       O542   1.984       .  S
Fe533       O679   2.065       .  S
Fe533       O538   2.064       .  S
Fe533       O673   2.065       .  S
Fe533       O534   2.066       .  S
O534        C541   1.267       .  A
O535       Fe660   2.063   1_554  S
O535        C549   1.267       .  A
O536        C541   1.266       .  A
O537       Fe659   2.063   1_554  S
O537        C540   1.267       .  A
O538        C550   1.267       .  A
O539       Fe660   2.066   1_554  S
O539        C552   1.267       .  A
C540        C638   1.434       .  S
C540        O545   1.267       .  A
C541        C633   1.434       .  S
O543        C546   1.267       .  A
O544        C546   1.267       .  A
O545       Fe661   2.065   1_554  S
C546        C627   1.434       .  S
O547       Fe659   2.062   1_554  S
O547        C552   1.266       .  A
O548        C550   1.267       .  A
C549        C624   1.434       .  S
C549        O551   1.267       .  A
C550        C626   1.434       .  S
O551       Fe661   2.065   1_554  S
C552        C630   1.434       .  S
C553        C554   1.401       .  A
C553        C558   1.401       .  A
C553        C623   1.441       .  S
C554        C555   1.402       .  A
C554        H559   1.085       .  S
C555        C556   1.402       .  A
C555        C621   1.439       .  S
C556        C557   1.401       .  A
C556        H560   1.084       .  S
C557        C558   1.401       .  A
C557        C620   1.440       .  S
C558        H561   1.085       .  S
C562        C563   1.401       .  A
C562        C567   1.401       .  A
C562        C625   1.441       .  S
C563        C564   1.402       .  A
C563        H568   1.085       .  S
C564        C565   1.402       .  A
C564        C622   1.439       .  S
C565        C566   1.401       .  A
C565        H569   1.084       .  S
C566        C567   1.401       .  A
C566        C617   1.440       .  S
C567        H570   1.085       .  S
Fe571       O582   1.983       .  S
Fe571       O715   2.063       .  S
Fe571       O705   2.064       .  S
Fe571       O584   2.065       .  S
Fe571       O576   2.063       .  S
Fe572       O582   1.984       .  S
Fe572       O703   2.063       .  S
Fe572       O707   2.065       .  S
Fe572       O583   2.064       .  S
Fe572       O588   2.064       .  S
Fe573       O582   1.984       .  S
Fe573       O719   2.065       .  S
Fe573       O578   2.063       .  S
Fe573       O713   2.064       .  S
Fe573       O574   2.065       .  S
O574        C581   1.267       .  A
O575       Fe700   2.063   1_554  S
O575        C589   1.267       .  A
O576        C581   1.267       .  A
O577       Fe699   2.064   1_554  S
O577        C580   1.267       .  A
O578        C590   1.267       .  A
O579       Fe700   2.065   1_554  S
O579        C592   1.267       .  A
C580        C636   1.434       .  S
C580        O585   1.267       .  A
C581        C632   1.434       .  S
O583        C586   1.267       .  A
O584        C586   1.267       .  A
O585       Fe701   2.064   1_554  S
C586        C614   1.435       .  S
O587       Fe699   2.063   1_554  S
O587        C592   1.267       .  A
O588        C590   1.267       .  A
C589        C619   1.434       .  S
C589        O591   1.267       .  A
C590        C618   1.434       .  S
O591       Fe701   2.065   1_554  S
C592        C615   1.435       .  S
C593        C598   1.401       .  A
C593        C616   1.441       .  S
C594        C595   1.402       .  A
C594        H599   1.085       .  S
C595        C596   1.401       .  A
C595        C629   1.441       .  S
C596        C597   1.402       .  A
C596        H600   1.083       .  S
C597        C612   1.439       .  S
C598        H601   1.083       .  S
C602        C607   1.401       .  A
C602        C613   1.441       .  S
C603        C604   1.401       .  A
C603        H608   1.085       .  S
C604        C605   1.401       .  A
C604        C628   1.441       .  S
C605        C606   1.402       .  A
C605        H609   1.083       .  S
C606        C611   1.439       .  S
C607        H610   1.083       .  S
C611        C612   1.206       .  T
C613        C614   1.206       .  T
C615        C616   1.206       .  T
C617        C618   1.206       .  T
C619        C620   1.206       .  T
C621        C622   1.206       .  T
C623        C624   1.206       .  T
C625        C626   1.206       .  T
C627        C628   1.206       .  T
C629        C630   1.206       .  T
C631        C632   1.206       .  T
C633        C634   1.206       .  T
C635        C636   1.206       .  T
C637        C638   1.206       .  T
C639        C640   1.206       .  T
C641        C642   1.401       .  A
C641        C902   1.402       .  A
C641        C763   1.441       .  S
C642        C643   1.403       .  A
C642        H647   1.085       .  S
C643        C900   1.402       .  A
C643        C768   1.439       .  S
C644        C899   1.402   1_545  A
C644        C645   1.401       .  A
C644        H648   1.085       .  S
C645        C646   1.401   1_545  A
C645        C765   1.441       .  S
C646        C897   1.402       .  A
C646        H649   1.085       .  S
C650        C651   1.401       .  A
C650        C911   1.402   1_545  A
C650        C762   1.441       .  S
C651        C908   1.402   1_545  A
C651        H656   1.085       .  S
C652        C907   1.402       .  A
C652        C653   1.402       .  A
C652        C767   1.439       .  S
C653        C654   1.401       .  A
C653        H657   1.085       .  S
C654        C655   1.402       .  A
C654        C759   1.441       .  S
C655        C906   1.402       .  A
C655        H658   1.085       .  S
Fe659       O670   1.983       .  S
Fe659       O672   2.063       .  S
Fe659       O664   2.062       .  S
Fe660       O670   1.984       .  S
Fe660       O671   2.065       .  S
Fe660       O676   2.064       .  S
Fe661       O670   1.984       .  S
Fe661       O666   2.064       .  S
Fe661       O662   2.066       .  S
O662        C669   1.267       .  A
O663        C677   1.267       .  A
O664        C669   1.266       .  A
O665        C668   1.267       .  A
O666        C678   1.267       .  A
O667        C680   1.267       .  A
C668        C766   1.434       .  S
C668        O673   1.267       .  A
C669        C761   1.434       .  S
O671        C674   1.267       .  A
O672        C674   1.267       .  A
C674        C755   1.434       .  S
O675        C680   1.266       .  A
O676        C678   1.267       .  A
C677        C752   1.434       .  S
C677        O679   1.267       .  A
C678        C754   1.434       .  S
C680        C758   1.434       .  S
C681        C682   1.401       .  A
C681        C686   1.401       .  A
C681        C751   1.441       .  S
C682        C683   1.402       .  A
C682        H687   1.085       .  S
C683        C684   1.402       .  A
C683        C749   1.439       .  S
C684        C685   1.401       .  A
C684        H688   1.084       .  S
C685        C686   1.401       .  A
C685        C748   1.440       .  S
C686        H689   1.085       .  S
C690        C691   1.401       .  A
C690        C695   1.401       .  A
C690        C753   1.441       .  S
C691        C692   1.402       .  A
C691        H696   1.085       .  S
C692        C693   1.402       .  A
C692        C750   1.439       .  S
C693        C694   1.401       .  A
C693        H697   1.084       .  S
C694        C695   1.401       .  A
C694        C745   1.440       .  S
C695        H698   1.085       .  S
Fe699       O710   1.983       .  S
Fe699       O712   2.065       .  S
Fe699       O704   2.063       .  S
Fe700       O710   1.984       .  S
Fe700       O711   2.064       .  S
Fe700       O716   2.064       .  S
Fe701       O710   1.984       .  S
Fe701       O706   2.063       .  S
Fe701       O702   2.065       .  S
O702        C709   1.267       .  A
O703        C717   1.267       .  A
O704        C709   1.267       .  A
O705        C708   1.267       .  A
O706        C718   1.267       .  A
O707        C720   1.267       .  A
C708        C764   1.434       .  S
C708        O713   1.267       .  A
C709        C760   1.434       .  S
O711        C714   1.267       .  A
O712        C714   1.267       .  A
C714        C742   1.435       .  S
O715        C720   1.267       .  A
O716        C718   1.267       .  A
C717        C747   1.434       .  S
C717        O719   1.267       .  A
C718        C746   1.434       .  S
C720        C743   1.435       .  S
C721        C726   1.401       .  A
C721        C744   1.441       .  S
C722        C723   1.402       .  A
C722        H727   1.085       .  S
C723        C724   1.401       .  A
C723        C757   1.441       .  S
C724        C725   1.402       .  A
C724        H728   1.083       .  S
C725        C740   1.439       .  S
C726        H729   1.083       .  S
C730        C735   1.401       .  A
C730        C741   1.441       .  S
C731        C732   1.401       .  A
C731        H736   1.085       .  S
C732        C733   1.401       .  A
C732        C756   1.441       .  S
C733        C734   1.402       .  A
C733        H737   1.083       .  S
C734        C739   1.439       .  S
C735        H738   1.083       .  S
C739        C740   1.206       .  T
C741        C742   1.206       .  T
C743        C744   1.206       .  T
C745        C746   1.206       .  T
C747        C748   1.206       .  T
C749        C750   1.206       .  T
C751        C752   1.206       .  T
C753        C754   1.206       .  T
C755        C756   1.206       .  T
C757        C758   1.206       .  T
C759        C760   1.206       .  T
C761        C762   1.206       .  T
C763        C764   1.206       .  T
C765        C766   1.206       .  T
C767        C768   1.206       .  T
C769        C770   1.401       .  A
C769        C891   1.441       .  S
C770        C771   1.403       .  A
C770        H775   1.085       .  S
C771        C896   1.439       .  S
C772        C773   1.401       .  A
C772        H776   1.085       .  S
C773        C774   1.401       .  A
C773        C893   1.441       .  S
C774        H777   1.085       .  S
C778        C779   1.401       .  A
C778        C890   1.441       .  S
C779        H784   1.085       .  S
C780        C781   1.402       .  A
C780        C895   1.439       .  S
C781        C782   1.401       .  A
C781        H785   1.085       .  S
C782        C783   1.402       .  A
C782        C887   1.441       .  S
C783        H786   1.085       .  S
Fe787       O798   1.983       .  S
Fe787       O931   2.062       .  S
Fe787       O921   2.063       .  S
Fe787       O800   2.063       .  S
Fe787       O792   2.062       .  S
Fe788       O798   1.984       .  S
Fe788       O919   2.063       .  S
Fe788       O923   2.066       .  S
Fe788       O799   2.065       .  S
Fe788       O804   2.064       .  S
Fe789       O798   1.984       .  S
Fe789       O935   2.065       .  S
Fe789       O794   2.064       .  S
Fe789       O929   2.065       .  S
Fe789       O790   2.066       .  S
O790        C797   1.267       .  A
O791       Fe916   2.063   1_554  S
O791        C805   1.267       .  A
O792        C797   1.266       .  A
O793       Fe915   2.063   1_554  S
O793        C796   1.267       .  A
O794        C806   1.267       .  A
O795       Fe916   2.066   1_554  S
O795        C808   1.267       .  A
C796        C894   1.434       .  S
C796        O801   1.267       .  A
C797        C889   1.434       .  S
O799        C802   1.267       .  A
O800        C802   1.267       .  A
O801       Fe917   2.065   1_554  S
C802        C883   1.434       .  S
O803       Fe915   2.062   1_554  S
O803        C808   1.266       .  A
O804        C806   1.267       .  A
C805        C880   1.434       .  S
C805        O807   1.267       .  A
C806        C882   1.434       .  S
O807       Fe917   2.065   1_554  S
C808        C886   1.434       .  S
C809        C810   1.401       .  A
C809        C814   1.401       .  A
C809        C879   1.441       .  S
C810        C811   1.402       .  A
C810        H815   1.085       .  S
C811        C812   1.402       .  A
C811        C877   1.439       .  S
C812        C813   1.401       .  A
C812        H816   1.084       .  S
C813        C814   1.401       .  A
C813        C876   1.440       .  S
C814        H817   1.085       .  S
C818        C819   1.401       .  A
C818        C823   1.401       .  A
C818        C881   1.441       .  S
C819        C820   1.402       .  A
C819        H824   1.085       .  S
C820        C821   1.402       .  A
C820        C878   1.439       .  S
C821        C822   1.401       .  A
C821        H825   1.084       .  S
C822        C823   1.401       .  A
C822        C873   1.440       .  S
C823        H826   1.085       .  S
Fe827       O838   1.983       .  S
Fe827       O971   2.063       .  S
Fe827       O961   2.064       .  S
Fe827       O840   2.065       .  S
Fe827       O832   2.063       .  S
Fe828       O838   1.984       .  S
Fe828       O959   2.063       .  S
Fe828       O963   2.065       .  S
Fe828       O839   2.064       .  S
Fe828       O844   2.064       .  S
Fe829       O838   1.984       .  S
Fe829       O975   2.065       .  S
Fe829       O834   2.063       .  S
Fe829       O969   2.064       .  S
Fe829       O830   2.065       .  S
O830        C837   1.267       .  A
O831       Fe956   2.063   1_554  S
O831        C845   1.267       .  A
O832        C837   1.267       .  A
O833       Fe955   2.064   1_554  S
O833        C836   1.267       .  A
O834        C846   1.267       .  A
O835       Fe956   2.065   1_554  S
O835        C848   1.267       .  A
C836        C892   1.434       .  S
C836        O841   1.267       .  A
C837        C888   1.434       .  S
O839        C842   1.267       .  A
O840        C842   1.267       .  A
O841       Fe957   2.064   1_554  S
C842        C870   1.435       .  S
O843       Fe955   2.063   1_554  S
O843        C848   1.267       .  A
O844        C846   1.267       .  A
C845        C875   1.434       .  S
C845        O847   1.267       .  A
C846        C874   1.434       .  S
O847       Fe957   2.065   1_554  S
C848        C871   1.435       .  S
C849        C854   1.401       .  A
C849        C872   1.441       .  S
C850        C851   1.402       .  A
C850        H855   1.085       .  S
C851        C852   1.401       .  A
C851        C885   1.441       .  S
C852        C853   1.402       .  A
C852        H856   1.083       .  S
C853        C868   1.439       .  S
C854        H857   1.083       .  S
C858        C863   1.401       .  A
C858        C869   1.441       .  S
C859        C860   1.401       .  A
C859        H864   1.085       .  S
C860        C861   1.401       .  A
C860        C884   1.441       .  S
C861        C862   1.402       .  A
C861        H865   1.083       .  S
C862        C867   1.439       .  S
C863        H866   1.083       .  S
C867        C868   1.206       .  T
C869        C870   1.206       .  T
C871        C872   1.206       .  T
C873        C874   1.206       .  T
C875        C876   1.206       .  T
C877        C878   1.206       .  T
C879        C880   1.206       .  T
C881        C882   1.206       .  T
C883        C884   1.206       .  T
C885        C886   1.206       .  T
C887        C888   1.206       .  T
C889        C890   1.206       .  T
C891        C892   1.206       .  T
C893        C894   1.206       .  T
C895        C896   1.206       .  T
C897        C898   1.401       .  A
C897       C1019   1.441       .  S
C898        C899   1.403       .  A
C898        H903   1.085       .  S
C899       C1024   1.439       .  S
C900        C901   1.401       .  A
C900        H904   1.085       .  S
C901        C902   1.401       .  A
C901       C1021   1.441       .  S
C902        H905   1.085       .  S
C906        C907   1.401       .  A
C906       C1018   1.441       .  S
C907        H912   1.085       .  S
C908        C909   1.402       .  A
C908       C1023   1.439       .  S
C909        C910   1.401       .  A
C909        H913   1.085       .  S
C910        C911   1.402       .  A
C910       C1015   1.441       .  S
C911        H914   1.085       .  S
Fe915       O926   1.983       .  S
Fe915       O928   2.063       .  S
Fe915       O920   2.062       .  S
Fe916       O926   1.984       .  S
Fe916       O927   2.065       .  S
Fe916       O932   2.064       .  S
Fe917       O926   1.984       .  S
Fe917       O922   2.064       .  S
Fe917       O918   2.066       .  S
O918        C925   1.267       .  A
O919        C933   1.267       .  A
O920        C925   1.266       .  A
O921        C924   1.267       .  A
O922        C934   1.267       .  A
O923        C936   1.267       .  A
C924       C1022   1.434       .  S
C924        O929   1.267       .  A
C925       C1017   1.434       .  S
O927        C930   1.267       .  A
O928        C930   1.267       .  A
C930       C1011   1.434       .  S
O931        C936   1.266       .  A
O932        C934   1.267       .  A
C933       C1008   1.434       .  S
C933        O935   1.267       .  A
C934       C1010   1.434       .  S
C936       C1014   1.434       .  S
C937        C938   1.401       .  A
C937        C942   1.401       .  A
C937       C1007   1.441       .  S
C938        C939   1.402       .  A
C938        H943   1.085       .  S
C939        C940   1.402       .  A
C939       C1005   1.439       .  S
C940        C941   1.401       .  A
C940        H944   1.084       .  S
C941        C942   1.401       .  A
C941       C1004   1.440       .  S
C942        H945   1.085       .  S
C946        C947   1.401       .  A
C946        C951   1.401       .  A
C946       C1009   1.441       .  S
C947        C948   1.402       .  A
C947        H952   1.085       .  S
C948        C949   1.402       .  A
C948       C1006   1.439       .  S
C949        C950   1.401       .  A
C949        H953   1.084       .  S
C950        C951   1.401       .  A
C950       C1001   1.440       .  S
C951        H954   1.085       .  S
Fe955       O966   1.983       .  S
Fe955       O968   2.065       .  S
Fe955       O960   2.063       .  S
Fe956       O966   1.984       .  S
Fe956       O967   2.064       .  S
Fe956       O972   2.064       .  S
Fe957       O966   1.984       .  S
Fe957       O962   2.063       .  S
Fe957       O958   2.065       .  S
O958        C965   1.267       .  A
O959        C973   1.267       .  A
O960        C965   1.267       .  A
O961        C964   1.267       .  A
O962        C974   1.267       .  A
O963        C976   1.267       .  A
C964       C1020   1.434       .  S
C964        O969   1.267       .  A
C965       C1016   1.434       .  S
O967        C970   1.267       .  A
O968        C970   1.267       .  A
C970        C998   1.435       .  S
O971        C976   1.267       .  A
O972        C974   1.267       .  A
C973       C1003   1.434       .  S
C973        O975   1.267       .  A
C974       C1002   1.434       .  S
C976        C999   1.435       .  S
C977        C982   1.401       .  A
C977       C1000   1.441       .  S
C978        C979   1.402       .  A
C978        H983   1.085       .  S
C979        C980   1.401       .  A
C979       C1013   1.441       .  S
C980        C981   1.402       .  A
C980        H984   1.083       .  S
C981        C996   1.439       .  S
C982        H985   1.083       .  S
C986        C991   1.401       .  A
C986        C997   1.441       .  S
C987        C988   1.401       .  A
C987        H992   1.085       .  S
C988        C989   1.401       .  A
C988       C1012   1.441       .  S
C989        C990   1.402       .  A
C989        H993   1.083       .  S
C990        C995   1.439       .  S
C991        H994   1.083       .  S
C995        C996   1.206       .  T
C997        C998   1.206       .  T
C999       C1000   1.206       .  T
C1001      C1002   1.206       .  T
C1003      C1004   1.206       .  T
C1005      C1006   1.206       .  T
C1007      C1008   1.206       .  T
C1009      C1010   1.206       .  T
C1011      C1012   1.206       .  T
C1013      C1014   1.206       .  T
C1015      C1016   1.206       .  T
C1017      C1018   1.206       .  T
C1019      C1020   1.206       .  T
C1021      C1022   1.206       .  T
C1023      C1024   1.206       .  T
