geometry optimzed in LAMMPS
_audit_creation_date              2020-11-30 
_audit_creation_method            'lammps2cif' 
_symmetry_space_group_name_H-M    'P1' 
_symmetry_Int_Tables_number       1 
_symmetry_cell_setting            triclinic 
loop_ 
_symmetry_equiv_pos_as_xyz 
  x,y,z 
_cell_length_a                    42.040766421357425 
_cell_length_b                    42.10949870284429 
_cell_length_c                    39.96612948536057 
_cell_angle_alpha                 90.33477575984905 
_cell_angle_beta                  90.38683427175206 
_cell_angle_gamma                 69.98399144373337 
loop_ 
_atom_site_label 
_atom_site_type_symbol 
_atom_site_fract_x 
_atom_site_fract_y 
_atom_site_fract_z 
_atom_site_charge 
O1          O  0.09257218  0.46852199  0.06039103    -0.74770
O2          O  0.08978319  0.01767387  0.03536863    -0.53680
C3          C  0.10491525  0.49184506  0.05380904     0.78960
O4          O  0.02284239  0.40728522  0.43479528    -0.59370
O5          O  0.47585376  0.40968248  0.46454916    -0.52400
C6          C  0.49920568  0.39594180  0.44308065     0.70970
O7          O  0.09114012  0.46936536  0.43782422    -0.73930
O8          O  0.08891202  0.01787272  0.46477564    -0.54500
C9          C  0.10309809  0.49292956  0.44499792     0.76970
O10         O  0.02184394  0.40912784  0.06616086    -0.59080
O11         O  0.47602814  0.41002944  0.03520359    -0.52200
C12         C  0.49860705  0.39704436  0.05772144     0.73570
Zr13       Zr  0.04157795  0.45499903  0.05007097     2.54710
O14         O  0.08963819  0.40261607  0.05400804    -0.79640
O15         O  0.03954074  0.46122733  0.11072452    -0.93060
Zr16       Zr  0.04143774  0.45444463  0.45010112     2.64680
O17         O  0.09177694  0.40397908  0.44691690    -0.98010
O18         O  0.03710462  0.45936101  0.38941943    -0.80020
O19         O  0.06100070  0.47214497  0.50017050    -0.83430
O20         O  0.02372804  0.43567411  0.50008860    -2.18140
O21         O  0.41346009  0.01886789  0.06647831    -0.66820
O22         O  0.41543607  0.47183552  0.03650892    -0.51390
C23         C  0.40222936  0.99493236  0.05843115     0.71950
O24         O  0.47633047  0.08649279  0.43868393    -0.59730
O25         O  0.02663058  0.08102974  0.46443433    -0.51710
C26         C  0.00134502  0.09662167  0.44545658     0.73750
O27         O  0.41370143  0.01756830  0.43264354    -0.71130
O28         O  0.41603264  0.47098033  0.46250272    -0.49800
C29         C  0.40267667  0.99346268  0.44015313     0.75130
O30         O  0.47817686  0.08537947  0.06416654    -0.66450
O31         O  0.02638422  0.08151282  0.03588113    -0.53650
C32         C  0.00268705  0.09585038  0.05682717     0.73520
Zr33       Zr  0.46015997  0.03765949  0.04974742     2.77540
O34         O  0.41061295  0.08902093  0.04939739    -0.97200
O35         O  0.46336558  0.03628242  0.11058191    -0.78020
Zr36       Zr  0.46002715  0.03710068  0.45012131     2.70070
O37         O  0.40818836  0.08600150  0.44789130    -0.79270
O38         O  0.46583888  0.03540770  0.38951946    -0.98360
Zr39       Zr  0.03923829  0.03210527  0.50022307     2.21500
Zr40       Zr  0.46373797  0.45928754  0.99992848     2.11130
O41         O  0.44048757  0.01954007  0.99985688    -2.47040
O42         O  0.47901305  0.05581516  0.00000087    -0.79060
O43         O  0.48170001  0.47764824  0.05076771    -0.71260
O44         O  0.02016881  0.01441180  0.44935514    -2.32220
O45         O  0.02034315  0.01495489  0.05095544    -2.28430
O46         O  0.48151578  0.47712797  0.44919671    -0.73020
H47         H  0.03138404  0.41131274  0.50030456     0.78980
H48         H  0.02872088  0.02275124  0.43017800     0.80060
H49         H  0.41604441  0.02728989  0.99968016     0.82290
H50         H  0.02910508  0.02333145  0.07019344     0.79900
H51         H  0.04518795  0.47820335  0.38396641     0.42930
H52         H  0.46408746  0.01339255  0.38280360     0.41900
H53         H  0.40900015  0.09911882  0.46831721     0.41580
H54         H  0.39747340  0.08681694  0.02942487     0.39510
H55         H  0.46939187  0.01207452  0.11628093     0.42650
H56         H  0.04819648  0.47990567  0.11545463     0.37430
H57         H  0.09913230  0.39890184  0.03112758     0.43550
H58         H  0.08799138  0.38824614  0.46345379     0.39960
H59         H  0.39686664  0.08676977  0.06866237     0.44880
H60         H  0.05760645  0.44075104  0.11896508     0.43600
H61         H  0.09018721  0.39374979  0.42487733     0.43740
H62         H  0.44457416  0.05241185  0.38130532     0.44100
C63         C  0.00406326  0.27372898  0.12498345     0.03650
C64         C  0.00659610  0.27339351  0.16004393    -0.12500
C65         C  0.00749482  0.24463885  0.17803097     0.01150
C66         C  0.00538011  0.21632861  0.16092262    -0.11030
C67         C  0.00216051  0.21665605  0.12596402     0.03640
C68         C  0.00146799  0.24543869  0.10805203    -0.10450
H69         H  0.00777602  0.29549265  0.17331405     0.09240
H70         H  0.00576918  0.19418779  0.17486566     0.06760
H71         H  0.99956204  0.24557177  0.08098655     0.06610
C72         C  0.00062256  0.27402927  0.37444647     0.03650
C73         C  0.00460878  0.27188077  0.33946625    -0.12500
C74         C  0.00539326  0.24265028  0.32210803     0.01150
C75         C  0.00509065  0.21421482  0.33982664    -0.11030
C76         C  0.00311608  0.21513448  0.37479671     0.03640
C77         C  0.99991570  0.24528433  0.39190566    -0.10450
H78         H  0.00646846  0.29311964  0.32547962     0.09240
H79         H  0.00566962  0.19163143  0.32631400     0.06760
H80         H  0.99688049  0.24620203  0.41882850     0.06610
C81         C  0.28807462  0.47791568  0.12582378     0.03650
C82         C  0.25908532  0.47812518  0.10798519    -0.12500
C83         C  0.23023639  0.47733150  0.12491307     0.01150
C84         C  0.23044904  0.47660049  0.16000272    -0.11030
C85         C  0.25961743  0.47508187  0.17814432     0.03640
C86         C  0.28809837  0.47643076  0.16096022    -0.10450
H87         H  0.25880417  0.47929671  0.08089307     0.09240
H88         H  0.20773649  0.47761366  0.17329429     0.06760
H89         H  0.30985089  0.47753029  0.17495583     0.06610
C90         C  0.28467283  0.47972213  0.37468568     0.03650
C91         C  0.25600167  0.48052393  0.39284382    -0.12500
C92         C  0.22783076  0.47732137  0.37623132     0.01150
C93         C  0.22795400  0.47425973  0.34129538    -0.11030
C94         C  0.25557295  0.47579891  0.32275138     0.03640
C95         C  0.28420083  0.47783717  0.33964194    -0.10450
H96         H  0.25569367  0.48346543  0.41981988     0.09240
H97         H  0.20620208  0.47149581  0.32857012     0.06760
H98         H  0.30591720  0.47843025  0.32552189     0.06610
C99         C  0.23551655  0.50193296  0.23195321    -0.11750
C100        C  0.25910651  0.47475993  0.21519214     0.05260
C101        C  0.28075140  0.44753064  0.23396009    -0.07040
C102        C  0.27834024  0.44802011  0.26893388    -0.07780
C103        C  0.25484115  0.47529648  0.28573556    -0.02330
C104        C  0.23314306  0.50267468  0.26695760     0.04480
N105        N  0.21020383  0.03230120  0.28277701     0.66990
H106        H  0.21914811  0.02303280  0.21761979     0.15890
H107        H  0.29526303  0.42713332  0.28316799     0.15600
N108        N  0.30485822  0.41897378  0.21797468     0.74700
O109        O  0.20810543  0.06123893  0.27249160    -0.38750
O110        O  0.18767104  0.02974562  0.30217669    -0.38700
O111        O  0.33242672  0.42108543  0.20789212    -0.39400
O112        O  0.30231725  0.39014910  0.22123275    -0.39470
C113        C  0.47697575  0.25208617  0.23136938    -0.11750
C114        C  0.00798833  0.24489703  0.21492663     0.05260
C115        C  0.03838512  0.23614688  0.23376785    -0.07040
C116        C  0.03664392  0.23498705  0.26882738    -0.07780
C117        C  0.00557460  0.24226056  0.28523063    -0.02330
C118        C  0.47521748  0.25079049  0.26634980     0.04480
N119        N  0.44256516  0.25849699  0.28193912     0.66990
H120        H  0.45393841  0.25821149  0.21661781     0.15890
H121        H  0.05966616  0.22880639  0.28360082     0.15600
N122        N  0.07098896  0.22801153  0.21806069     0.74700
O123        O  0.41626091  0.27745578  0.26731056    -0.38750
O124        O  0.43924867  0.24387633  0.30848343    -0.38700
O125        O  0.07431713  0.24231561  0.19132683    -0.39400
O126        O  0.09721417  0.20868550  0.23252132    -0.39470
C127        C  0.03109706  0.12775309  0.41340624    -0.11750
C128        C  0.00152285  0.12813909  0.42960918     0.05260
C129        C  0.47271549  0.15798474  0.42920661    -0.07040
C130        C  0.47381782  0.18593306  0.41073190    -0.07780
C131        C  0.00308605  0.18491092  0.39340743    -0.02330
C132        C  0.03222143  0.15564986  0.39524922     0.04480
N133        N  0.06341732  0.15416282  0.37985641     0.66990
H134        H  0.05324286  0.10514513  0.41410525     0.15890
H135        H  0.45189987  0.20889240  0.41021456     0.15600
N136        N  0.44299894  0.16089890  0.44846766     0.74700
O137        O  0.09022432  0.14599300  0.39714794    -0.38750
O138        O  0.06548306  0.15476874  0.34840413    -0.38700
O139        O  0.44574650  0.14679297  0.47666054    -0.39400
O140        O  0.41443973  0.18118043  0.43953376    -0.39470
C141        C  0.01556725  0.30355323  0.42337038    -0.11750
C142        C  0.99808657  0.30583696  0.39280449     0.05260
C143        C  0.47974682  0.33837755  0.37990401    -0.07040
C144        C  0.48126266  0.36721668  0.39663771    -0.07780
C145        C  0.99916958  0.36463796  0.42670594    -0.02330
C146        C  0.01597916  0.33248277  0.44077483     0.04480
N147        N  0.03342116  0.32854326  0.47248423     0.66990
H148        H  0.02994837  0.27895940  0.43342658     0.15890
H149        H  0.46750923  0.39203795  0.38660653     0.15600
N150        N  0.45841398  0.34280522  0.35079411     0.74700
O151        O  0.03543987  0.30373994  0.99104045    -0.38750
O152        O  0.04897125  0.34816866  0.48107225    -0.38700
O153        O  0.43887437  0.32593901  0.34742631    -0.39400
O154        O  0.45615594  0.36626132  0.33037876    -0.39470
C155        C  0.47501236  0.15642736  0.07074827    -0.11750
C156        C  0.00337017  0.12683207  0.07370298     0.05260
C157        C  0.03072466  0.12687020  0.09441604    -0.07040
C158        C  0.02910917  0.15646895  0.11149607    -0.07780
C159        C  0.00107733  0.18618433  0.10821191    -0.02330
C160        C  0.47338621  0.18626033  0.08779711     0.04480
N161        N  0.44324092  0.21567934  0.08494577     0.66990
H162        H  0.45376998  0.15604650  0.05543027     0.15890
H163        H  0.05027757  0.15647703  0.12714141     0.15600
N164        N  0.05968872  0.09696387  0.09951403     0.74700
O165        O  0.42476944  0.21992120  0.05914500    -0.38750
O166        O  0.43298646  0.23559358  0.10941789    -0.38700
O167        O  0.07658836  0.08154639  0.07480318    -0.39400
O168        O  0.07192828  0.08960080  0.12853967    -0.39470
C169        C  0.47518789  0.32153216  0.08724593    -0.11750
C170        C  0.00388885  0.30387085  0.10615592     0.05260
C171        C  0.03099045  0.31633099  0.10853833    -0.07040
C172        C  0.02799277  0.34706457  0.09320542    -0.07780
C173        C  0.99894208  0.36547601  0.07470535    -0.02330
C174        C  0.47221365  0.35218533  0.07167322     0.04480
N175        N  0.44145943  0.36967089  0.05397445     0.66990
H176        H  0.45429901  0.31202087  0.08563605     0.15890
H177        H  0.04920790  0.35604095  0.09496189     0.15600
N178        N  0.06213475  0.29751641  0.12522598     0.74700
O179        O  0.42935267  0.35370318  0.03364511    -0.38750
O180        O  0.42319091  0.39882115  0.06338442    -0.38700
O181        O  0.07437044  0.26578386  0.12210869    -0.39400
O182        O  0.07966504  0.31279067  0.13944514    -0.39470
C183        C  0.36745992  0.45927800  0.42258596    -0.11750
C184        C  0.37261924  0.49061886  0.42207472     0.05260
C185        C  0.34834796  0.01816939  0.40576899    -0.07040
C186        C  0.31963282  0.01392116  0.39120921    -0.07780
C187        C  0.31454218  0.48273048  0.39212472    -0.02330
C188        C  0.33881347  0.45487101  0.40798104     0.04480
N189        N  0.33550372  0.42189999  0.40896154     0.66990
H190        H  0.38588470  0.43782341  0.43474999     0.15890
H191        H  0.30119955  0.03514426  0.37868588     0.15600
N192        N  0.35197232  0.05069763  0.40399758     0.74700
O193        O  0.36162372  0.39571201  0.41010657    -0.38750
O194        O  0.30693008  0.41873647  0.41238803    -0.38700
O195        O  0.37308265  0.05522975  0.38395558    -0.39400
O196        O  0.32933575  0.07607217  0.41629482    -0.39470
C197        C  0.16012553  0.45742885  0.42562236    -0.11750
C198        C  0.13599156  0.48998871  0.42962232     0.05260
C199        C  0.14308066  0.01801400  0.41665434    -0.07040
C200        C  0.17334127  0.01271505  0.39941233    -0.07780
C201        C  0.19696865  0.48025192  0.39501403    -0.02330
C202        C  0.19062327  0.45199538  0.40843157     0.04480
N203        N  0.21425601  0.41794534  0.40486404     0.66990
H204        H  0.15479285  0.43588685  0.43552159     0.15890
H205        H  0.17843866  0.03425672  0.38913030     0.15600
N206        N  0.11924143  0.05171207  0.41872287     0.74700
O207        O  0.21285350  0.39500504  0.42440654    -0.38750
O208        O  0.23510279  0.40993065  0.38104914    -0.38700
O209        O  0.11241281  0.06616150  0.44684023    -0.39400
O210        O  0.11195843  0.06946808  0.39257126    -0.39470
C211        C  0.31199715  0.00756483  0.08455858    -0.11750
C212        C  0.31758208  0.48130651  0.10788137     0.05260
C213        C  0.35112172  0.45994673  0.11469074    -0.07040
C214        C  0.37811146  0.46671719  0.09958431    -0.07780
C215        C  0.37254310  0.49285915  0.07633964    -0.02330
C216        C  0.33896485  0.01343261  0.06819273     0.04480
N217        N  0.33152923  0.03947910  0.04306335     0.66990
H218        H  0.28630313  0.02396830  0.07941724     0.15890
H219        H  0.40383717  0.45052786  0.10494258     0.15600
N220        N  0.35814966  0.43029373  0.13514625     0.74700
O221        O  0.30320233  0.04905454  0.02826503    -0.38750
O222        O  0.35211943  0.05449088  0.03681496    -0.38700
O223        O  0.33951386  0.41235238  0.13315677    -0.39400
O224        O  0.38554689  0.41927001  0.15145798    -0.39470
C225        C  0.18404575  0.00867173  0.08599911    -0.11750
C226        C  0.19900532  0.48004292  0.10595152     0.05260
C227        C  0.18483573  0.45414654  0.10603382    -0.07040
C228        C  0.15475780  0.45869803  0.08832965    -0.07780
C229        C  0.13858426  0.48803365  0.06934640    -0.02330
C230        C  0.15477535  0.01254995  0.06684922     0.04480
N231        N  0.14342262  0.04033209  0.04392037     0.66990
H232        H  0.19592589  0.02776565  0.08455889     0.15890
H233        H  0.14405474  0.43871346  0.08960846     0.15600
N234        N  0.20156972  0.42218668  0.12188378     0.74700
O235        O  0.14450432  0.06885254  0.05251529    -0.38750
O236        O  0.14072689  0.03446231  0.01322318    -0.38700
O237        O  0.20691005  0.42062675  0.15302015    -0.39400
O238        O  0.20556418  0.39518850  0.10584264    -0.39470
O239        O  0.09251235  0.46857149  0.56037325    -0.74770
O240        O  0.08978328  0.01767411  0.53536869    -0.53680
C241        C  0.10485551  0.49189331  0.55378879     0.78960
O242        O  0.02287284  0.40725230  0.93479519    -0.59370
O243        O  0.47587272  0.40967043  0.96454127    -0.52400
C244        C  0.49922404  0.39592404  0.94307510     0.70970
O245        O  0.09118467  0.46932615  0.93778796    -0.73930
O246        O  0.08891190  0.01787249  0.96477560    -0.54500
C247        C  0.10314970  0.49288456  0.94496603     0.76970
O248        O  0.02181471  0.40915886  0.56616712    -0.59080
O249        O  0.47601080  0.41004364  0.53519974    -0.52200
C250        C  0.49858938  0.39706246  0.55772036     0.73570
Zr251      Zr  0.04151477  0.45505238  0.55007360     2.54710
O252        O  0.08959013  0.40268208  0.55398065    -0.79640
O253        O  0.03950507  0.46126861  0.61072854    -0.93060
Zr254      Zr  0.04149719  0.45439191  0.95010055     2.64680
O255        O  0.09182386  0.40391271  0.94689346    -0.98010
O256        O  0.03713632  0.45931473  0.88942090    -0.80020
O257        O  0.06107636  0.47208306  0.00016814    -0.83430
O258        O  0.02377384  0.43563722  0.00008778    -2.18140
O259        O  0.41346009  0.01886812  0.56647848    -0.66820
O260        O  0.41540254  0.47183719  0.53651441    -0.51390
C261        C  0.40222936  0.99493258  0.55843127     0.71950
O262        O  0.47633048  0.08649239  0.93868413    -0.59730
O263        O  0.02663060  0.08102924  0.96443454    -0.51710
C264        C  0.00134504  0.09662121  0.94545685     0.73750
O265        O  0.41370138  0.01756815  0.93264362    -0.71130
O266        O  0.41606508  0.47097724  0.96251140    -0.49800
C267        C  0.40267663  0.99346251  0.94015312     0.75130
O268        O  0.47817681  0.08538001  0.56416683    -0.66450
O269        O  0.02638415  0.08151339  0.53588135    -0.53650
C270        C  0.00268701  0.09585094  0.55682748     0.73520
Zr271      Zr  0.46015986  0.03766009  0.54974758     2.77540
O272        O  0.41061271  0.08902132  0.54939754    -0.97200
O273        O  0.46336549  0.03628261  0.61058205    -0.78020
Zr274      Zr  0.46002724  0.03710017  0.95012137     2.70070
O275        O  0.40818851  0.08600116  0.94789144    -0.79270
O276        O  0.46583891  0.03540757  0.88951952    -0.98360
Zr277      Zr  0.03923828  0.03210463  0.00022304     2.21500
Zr278      Zr  0.46369362  0.45931368  0.49992846     2.11130
O279        O  0.44048720  0.01954116  0.49985694    -2.47040
O280        O  0.47901303  0.05581546  0.50000090    -0.79060
O281        O  0.48163704  0.47769144  0.55077008    -0.71260
O282        O  0.02016887  0.01441107  0.94935509    -2.32220
O283        O  0.02034306  0.01495568  0.55095546    -2.28430
O284        O  0.48157541  0.47708557  0.94919798    -0.73020
H285        H  0.03142091  0.41127954  0.00030406     0.78980
H286        H  0.02872092  0.02275057  0.93017796     0.80060
H287        H  0.41604405  0.02729087  0.49968021     0.82290
H288        H  0.02910502  0.02333216  0.57019347     0.79900
H289        H  0.04520157  0.47816828  0.88396408     0.42930
H290        H  0.46408744  0.01339249  0.88280352     0.41900
H291        H  0.40900043  0.09911857  0.96831725     0.41580
H292        H  0.39747326  0.08681727  0.52942497     0.39510
H293        H  0.46939184  0.01207466  0.61628091     0.42650
H294        H  0.04816208  0.47994672  0.61545537     0.37430
H295        H  0.09907512  0.39898243  0.53109624     0.43550
H296        H  0.08804322  0.38818323  0.96343736     0.39960
H297        H  0.39686641  0.08677002  0.56866245     0.44880
H298        H  0.05757584  0.44079118  0.61895952     0.43600
H299        H  0.09021634  0.39368421  0.92485776     0.43740
H300        H  0.44457420  0.05241181  0.88130546     0.44100
C301        C  0.00406577  0.27373224  0.62498107     0.03650
C302        C  0.00659812  0.27339622  0.66004202    -0.12500
C303        C  0.00749511  0.24464170  0.67802934     0.01150
C304        C  0.00537998  0.21633169  0.66092090    -0.11030
C305        C  0.00216127  0.21665869  0.62596228     0.03640
C306        C  0.00146957  0.24544149  0.60805013    -0.10450
H307        H  0.00777843  0.29549502  0.67331239     0.09240
H308        H  0.00576817  0.19419114  0.67486399     0.06760
H309        H  0.99956347  0.24557434  0.58098471     0.06610
C310        C  0.00062042  0.27402585  0.87444465     0.03650
C311        C  0.00460804  0.27187825  0.83946494    -0.12500
C312        C  0.00539346  0.24264796  0.82210645     0.01150
C313        C  0.00509099  0.21421214  0.83982459    -0.11030
C314        C  0.00311551  0.21513173  0.87479461     0.03640
C315        C  0.99991357  0.24528129  0.89190358    -0.10450
H316        H  0.00646788  0.29311750  0.82547902     0.09240
H317        H  0.00567059  0.19162873  0.82631172     0.06760
H318        H  0.99687724  0.24619896  0.91882633     0.06610
C319        C  0.28804000  0.47790523  0.62581023     0.03650
C320        C  0.25904486  0.47813095  0.60797077    -0.12500
C321        C  0.23019000  0.47735055  0.62489739     0.01150
C322        C  0.23040572  0.47661419  0.65998864    -0.11030
C323        C  0.25958134  0.47507798  0.67812975     0.03640
C324        C  0.28806445  0.47641735  0.66094518    -0.10450
H325        H  0.25876381  0.47930564  0.58087885     0.09240
H326        H  0.20769170  0.47763437  0.67328125     0.06760
H327        H  0.30981974  0.47751027  0.67494043     0.06610
C328        C  0.28470791  0.47972800  0.87467436     0.03650
C329        C  0.25603885  0.48052089  0.89283081    -0.12500
C330        C  0.22787404  0.47730801  0.87621636     0.01150
C331        C  0.22799617  0.47425025  0.84128210    -0.11030
C332        C  0.25560760  0.47580431  0.82273896     0.03640
C333        C  0.28423442  0.47784841  0.83962912    -0.10450
H334        H  0.25572884  0.48346053  0.91980715     0.09240
H335        H  0.20624710  0.47147954  0.82855684     0.06760
H336        H  0.30594778  0.47844843  0.82550858     0.06610
C337        C  0.23549858  0.50192753  0.73194551    -0.11750
C338        C  0.25908065  0.47475345  0.71517823     0.05260
C339        C  0.28074402  0.44753129  0.73394306    -0.07040
C340        C  0.27835648  0.44802762  0.76891814    -0.07780
C341        C  0.25486536  0.47530415  0.78572458    -0.02330
C342        C  0.23314846  0.50267494  0.76695153     0.04480
N343        N  0.21020386  0.03230123  0.78277700     0.66990
H344        H  0.21914816  0.02303281  0.71761978     0.15890
H345        H  0.29529036  0.42714504  0.78314896     0.15600
N346        N  0.30485034  0.41897627  0.71795518     0.74700
O347        O  0.20810539  0.06123895  0.77249149    -0.38750
O348        O  0.18767116  0.02974568  0.80217681    -0.38700
O349        O  0.33242494  0.42108674  0.70788988    -0.39400
O350        O  0.30231359  0.39015060  0.72122083    -0.39470
C351        C  0.47697572  0.25208706  0.73136822    -0.11750
C352        C  0.00798834  0.24489894  0.71492540     0.05260
C353        C  0.03838515  0.23614756  0.73376690    -0.07040
C354        C  0.03664392  0.23498661  0.76882632    -0.07780
C355        C  0.00557471  0.24225937  0.78522933    -0.02330
C356        C  0.47521749  0.25079019  0.76634868     0.04480
N357        N  0.44256522  0.25849666  0.78193829     0.66990
H358        H  0.45393834  0.25821277  0.71661669     0.15890
H359        H  0.05966613  0.22880546  0.78359990     0.15600
N360        N  0.07098918  0.22801183  0.71806013     0.74700
O361        O  0.41626091  0.27745586  0.76731015    -0.38750
O362        O  0.43924885  0.24387638  0.80848292    -0.38700
O363        O  0.07431780  0.24231569  0.69132630    -0.39400
O364        O  0.09721411  0.20868562  0.73252105    -0.39470
C365        C  0.03109735  0.12775232  0.91340662    -0.11750
C366        C  0.00152299  0.12813850  0.92960947     0.05260
C367        C  0.47271556  0.15798408  0.92920659    -0.07040
C368        C  0.47381774  0.18593180  0.91073107    -0.07780
C369        C  0.00308573  0.18490889  0.89340583    -0.02330
C370        C  0.03222154  0.15564860  0.89524881     0.04480
N371        N  0.06341750  0.15416194  0.87985631     0.66990
H372        H  0.05324328  0.10514453  0.91410619     0.15890
H373        H  0.45189981  0.20889118  0.91021344     0.15600
N374        N  0.44299900  0.16089865  0.94846777     0.74700
O375        O  0.09022431  0.14599280  0.89714808    -0.38750
O376        O  0.06548343  0.15476843  0.84840408    -0.38700
O377        O  0.44574649  0.14679287  0.97666072    -0.39400
O378        O  0.41443985  0.18118033  0.93953385    -0.39470
C379        C  0.01556694  0.30354459  0.92336863    -0.11750
C380        C  0.99808489  0.30583149  0.89280322     0.05260
C381        C  0.47974580  0.33837260  0.87990356    -0.07040
C382        C  0.48126528  0.36720960  0.89663712    -0.07780
C383        C  0.99917690  0.36462636  0.92670247    -0.02330
C384        C  0.01598275  0.33247191  0.94077238     0.04480
N385        N  0.03342449  0.32853163  0.97248223     0.66990
H386        H  0.02994697  0.27895022  0.93342430     0.15890
H387        H  0.46751363  0.39203200  0.88660730     0.15600
N388        N  0.45841278  0.34280270  0.85079352     0.74700
O389        O  0.03544177  0.30374877  0.49104058    -0.38750
O390        O  0.04897789  0.34815415  0.98106992    -0.38700
O391        O  0.43887257  0.32593738  0.84742397    -0.39400
O392        O  0.45615564  0.36625976  0.83037960    -0.39470
C393        C  0.47501239  0.15642806  0.57074861    -0.11750
C394        C  0.00337014  0.12683275  0.57370333     0.05260
C395        C  0.03072465  0.12687106  0.59441625    -0.07040
C396        C  0.02910941  0.15647024  0.61149574    -0.07780
C397        C  0.00107795  0.18618613  0.60821080    -0.02330
C398        C  0.47338651  0.18626140  0.58779677     0.04480
N399        N  0.44324103  0.21568010  0.58494560     0.66990
H400        H  0.45376983  0.15604700  0.55543098     0.15890
H401        H  0.05027783  0.15647833  0.62714101     0.15600
N402        N  0.05968862  0.09696458  0.59951435     0.74700
O403        O  0.42476921  0.21992156  0.55914510    -0.38750
O404        O  0.43298656  0.23559416  0.60941784    -0.38700
O405        O  0.07658807  0.08154670  0.57480355    -0.39400
O406        O  0.07192799  0.08960132  0.62854003    -0.39470
C407        C  0.47518857  0.32153554  0.58724247    -0.11750
C408        C  0.00388984  0.30387592  0.60615257     0.05260
C409        C  0.03098988  0.31633902  0.60853293    -0.07040
C410        C  0.02798881  0.34707499  0.59319912    -0.07780
C411        C  0.99893564  0.36548580  0.57470037    -0.02330
C412        C  0.47221100  0.35218977  0.57166931     0.04480
N413        N  0.44145511  0.36967269  0.55397269     0.66990
H414        H  0.45430098  0.31202235  0.58563326     0.15890
H415        H  0.04920162  0.35605492  0.59495485     0.15600
N416        N  0.06213506  0.29752510  0.62522000     0.74700
O417        O  0.42935003  0.35370346  0.53364345    -0.38750
O418        O  0.42318373  0.39882087  0.56338540    -0.38700
O419        O  0.07436935  0.26579195  0.62210716    -0.39400
O420        O  0.07966396  0.31279961  0.63944108    -0.39470
C421        C  0.36748746  0.45928057  0.92259247    -0.11750
C422        C  0.37265288  0.49061899  0.92208062     0.05260
C423        C  0.34834792  0.01816938  0.90576901    -0.07040
C424        C  0.31963278  0.01392117  0.89120921    -0.07780
C425        C  0.31457607  0.48273502  0.89211924    -0.02330
C426        C  0.33884086  0.45487615  0.90798333     0.04480
N427        N  0.33552547  0.42190742  0.90896587     0.66990
H428        H  0.38590871  0.43782509  0.93475877     0.15890
H429        H  0.30119951  0.03514427  0.87868589     0.15600
N430        N  0.35197230  0.05069762  0.90399762     0.74700
O431        O  0.36164259  0.39571678  0.91011183    -0.38750
O432        O  0.30694986  0.41874850  0.91239293    -0.38700
O433        O  0.37308265  0.05522973  0.88395562    -0.39400
O434        O  0.32933574  0.07607216  0.91629485    -0.39470
C435        C  0.16016901  0.45739259  0.92557497    -0.11750
C436        C  0.13603370  0.48994983  0.92957929     0.05260
C437        C  0.14308056  0.01801389  0.91665433    -0.07040
C438        C  0.17334121  0.01271498  0.89941238    -0.07780
C439        C  0.19701375  0.48023022  0.89499232    -0.02330
C440        C  0.19067032  0.45196777  0.90839653     0.04480
N441        N  0.21431057  0.41792108  0.90483250     0.66990
H442        H  0.15483782  0.43584687  0.93546673     0.15890
H443        H  0.17843860  0.03425667  0.88913039     0.15600
N444        N  0.11924136  0.05171197  0.91872287     0.74700
O445        O  0.21291273  0.39498018  0.92437670    -0.38750
O446        O  0.23515870  0.40990924  0.88101867    -0.38700
O447        O  0.11241279  0.06616140  0.94684023    -0.39400
O448        O  0.11195843  0.06946800  0.89257127    -0.39470
C449        C  0.31199716  0.00756479  0.58455856    -0.11750
C450        C  0.31754968  0.48129530  0.60787270     0.05260
C451        C  0.35109083  0.45994017  0.61468862    -0.07040
C452        C  0.37807922  0.46671363  0.59958434    -0.07780
C453        C  0.37250850  0.49285573  0.57634058    -0.02330
C454        C  0.33896485  0.01343262  0.56819274     0.04480
N455        N  0.33152921  0.03947907  0.54306334     0.66990
H456        H  0.28630314  0.02396822  0.57941720     0.15890
H457        H  0.40380581  0.45052762  0.60494441     0.15600
N458        N  0.35812344  0.43029062  0.63515022     0.74700
O459        O  0.30320232  0.04905448  0.52826500    -0.38750
O460        O  0.35211941  0.05449087  0.53681492    -0.38700
O461        O  0.33949308  0.41234366  0.63316444    -0.39400
O462        O  0.38552265  0.41927255  0.65145977    -0.39470
C463        C  0.18404585  0.00867175  0.58599915    -0.11750
C464        C  0.19895554  0.48007079  0.60593173     0.05260
C465        C  0.18478320  0.45417617  0.60600512    -0.07040
C466        C  0.15470540  0.45873255  0.58829715    -0.07780
C467        C  0.13853199  0.48807264  0.56931890    -0.02330
C468        C  0.15477547  0.01255000  0.56684925     0.04480
N469        N  0.14342271  0.04033215  0.54392042     0.66990
H470        H  0.19592598  0.02776568  0.58455897     0.15890
H471        H  0.14400079  0.43874886  0.58957135     0.15600
N472        N  0.20151477  0.42221309  0.62185037     0.74700
O473        O  0.14450428  0.06885263  0.55251538    -0.38750
O474        O  0.14072696  0.03446239  0.51322322    -0.38700
O475        O  0.20686994  0.42064779  0.65298430    -0.39400
O476        O  0.20550952  0.39521721  0.60580508    -0.39470
O477        O  0.09253356  0.96857317  0.06041445    -0.74770
O478        O  0.08982068  0.51762811  0.03535516    -0.53680
C479        C  0.10487642  0.99189620  0.05383273     0.78960
O480        O  0.02287217  0.90727840  0.43478918    -0.59370
O481        O  0.47588292  0.90967852  0.46454270    -0.52400
C482        C  0.49923321  0.89593722  0.44307333     0.70970
O483        O  0.09116783  0.96936139  0.43781015    -0.73930
O484        O  0.08887401  0.51788420  0.46478025    -0.54500
C485        C  0.10312876  0.99292306  0.44498455     0.76970
O486        O  0.02183785  0.90915147  0.06616825    -0.59080
O487        O  0.47603520  0.91004015  0.03519686    -0.52200
C488        C  0.49861020  0.89705790  0.05772023     0.73570
Zr489      Zr  0.04154693  0.95504188  0.05007572     2.54710
O490        O  0.08962503  0.90267322  0.05397381    -0.79640
O491        O  0.03952083  0.96125026  0.11073149    -0.93060
Zr492      Zr  0.04147269  0.95443505  0.45009965     2.64680
O493        O  0.09180956  0.90396764  0.44691374    -0.98010
O494        O  0.03713643  0.95935154  0.38941791    -0.80020
O495        O  0.06103779  0.97213286  0.50017188    -0.83430
O496        O  0.02376487  0.93566284  0.50008746    -2.18140
O497        O  0.41349264  0.51884859  0.06650834    -0.66820
O498        O  0.41543000  0.97184174  0.03648755    -0.51390
C499        C  0.40224796  0.49492108  0.05846281     0.71950
O500        O  0.47630003  0.58649924  0.43867766    -0.59730
O501        O  0.02659998  0.58103506  0.46442783    -0.51710
C502        C  0.00131673  0.59662616  0.44544785     0.73750
O503        O  0.41367716  0.51756949  0.43263599    -0.71130
O504        O  0.41606699  0.97097313  0.46250433    -0.49800
C505        C  0.40265023  0.49346553  0.44014464     0.75130
O506        O  0.47820077  0.58536050  0.06414163    -0.66450
O507        O  0.02641521  0.58148299  0.03586381    -0.53650
C508        C  0.00270974  0.59583219  0.05679932     0.73520
Zr509      Zr  0.46020232  0.53762190  0.04975197     2.77540
O510        O  0.41067971  0.58900096  0.04935523    -0.97200
O511        O  0.46344888  0.53623757  0.11058449    -0.78020
Zr512      Zr  0.45999167  0.53711007  0.45012532     2.70070
O513        O  0.40815189  0.58600949  0.44789350    -0.79270
O514        O  0.46580803  0.53541461  0.38952377    -0.98360
Zr515      Zr  0.03919781  0.53211646  0.50022058     2.21500
Zr516      Zr  0.46373132  0.95930568  0.99992158     2.11130
O517        O  0.44051828  0.51951573  0.99986256    -2.47040
O518        O  0.47906289  0.55576084  0.00000427    -0.79060
O519        O  0.48166889  0.97768338  0.05076642    -0.71260
O520        O  0.02013209  0.51442107  0.44935335    -2.32220
O521        O  0.02038671  0.51491220  0.05095416    -2.28430
O522        O  0.48155133  0.97711900  0.44918897    -0.73020
H523        H  0.03141939  0.91130044  0.50030304     0.78980
H524        H  0.02868401  0.52275997  0.43017585     0.80060
H525        H  0.41607731  0.52727174  0.99968752     0.82290
H526        H  0.02915222  0.52328821  0.07019115     0.79900
H527        H  0.04519483  0.97821082  0.38396588     0.42930
H528        H  0.46406034  0.51339787  0.38280818     0.41900
H529        H  0.40896878  0.59913384  0.46831289     0.41580
H530        H  0.39751671  0.58676297  0.02941350     0.39510
H531        H  0.46940154  0.51203788  0.11628594     0.42650
H532        H  0.04815641  0.97994200  0.11546484     0.37430
H533        H  0.09910140  0.89897190  0.03108597     0.43550
H534        H  0.08801988  0.88823218  0.46344527     0.39960
H535        H  0.39694978  0.58679712  0.06865251     0.44880
H536        H  0.05760336  0.94078209  0.11896292     0.43600
H537        H  0.09022176  0.89374327  0.42487104     0.43740
H538        H  0.44454287  0.55241638  0.38130746     0.44100
C539        C  0.00406757  0.77372427  0.12497403     0.03650
C540        C  0.00659989  0.77338527  0.16003520    -0.12500
C541        C  0.00749485  0.74463055  0.17802157     0.01150
C542        C  0.00537783  0.71632152  0.16091049    -0.11030
C543        C  0.00215897  0.71664986  0.12595074     0.03640
C544        C  0.00146838  0.74543480  0.10804115    -0.10450
H545        H  0.00778190  0.79548268  0.17330699     0.09240
H546        H  0.00576554  0.69418048  0.17485230     0.06760
H547        H  0.99956255  0.74556963  0.08097575     0.06610
C548        C  0.00062384  0.77402942  0.37444418     0.03650
C549        C  0.00460957  0.77188088  0.33946356    -0.12500
C550        C  0.00539271  0.74265087  0.32210474     0.01150
C551        C  0.00508852  0.71421593  0.33982382    -0.11030
C552        C  0.00311271  0.71513567  0.37479412     0.03640
C553        C  0.99991443  0.74528514  0.39190320    -0.10450
H554        H  0.00647037  0.79311937  0.32547711     0.09240
H555        H  0.00566624  0.69163297  0.32631116     0.06760
H556        H  0.99687872  0.74620309  0.41882599     0.06610
C557        C  0.28808328  0.97789887  0.12578352     0.03650
C558        C  0.25906812  0.97813172  0.10797618    -0.12500
C559        C  0.23022556  0.97736401  0.12493620     0.01150
C560        C  0.23047836  0.97663053  0.16002886    -0.11030
C561        C  0.25967743  0.97508140  0.17813683     0.03640
C562        C  0.28814274  0.97641632  0.16091936    -0.10450
H563        H  0.25876140  0.97930420  0.08088386     0.09240
H564        H  0.20777498  0.97766487  0.17334903     0.06760
H565        H  0.30991231  0.97750925  0.17489007     0.06610
C566        C  0.28470286  0.97970782  0.37469935     0.03650
C567        C  0.25602037  0.98050576  0.39283603    -0.12500
C568        C  0.22785523  0.97731573  0.37620028     0.01150
C569        C  0.22799681  0.97426999  0.34126177    -0.11030
C570        C  0.25563517  0.97579906  0.32274259     0.03640
C571        C  0.28425460  0.97782591  0.33965517    -0.10450
H572        H  0.25569640  0.98344133  0.41981310     0.09240
H573        H  0.20624057  0.97154072  0.32851302     0.06760
H574        H  0.30598095  0.97841793  0.32555139     0.06610
C575        C  0.23571389  0.00201254  0.23195064    -0.11750
C576        C  0.25920790  0.97477119  0.21518609     0.05260
C577        C  0.28076486  0.94748166  0.23395243    -0.07040
C578        C  0.27834111  0.94797775  0.26892715    -0.07780
C579        C  0.25492463  0.97531389  0.28572783    -0.02330
C580        C  0.23333082  0.00275607  0.26695420     0.04480
N581        N  0.20993722  0.53217439  0.28277524     0.66990
H582        H  0.21888206  0.52291134  0.21762178     0.15890
H583        H  0.29519092  0.92704731  0.28316417     0.15600
N584        N  0.30479050  0.91886007  0.21797098     0.74700
O585        O  0.20778168  0.56113762  0.27251903    -0.38750
O586        O  0.18738190  0.52954576  0.30210159    -0.38700
O587        O  0.33226688  0.92095741  0.20759581    -0.39400
O588        O  0.30232669  0.89003310  0.22150606    -0.39470
C589        C  0.47697565  0.75207919  0.23136347    -0.11750
C590        C  0.00798817  0.74488851  0.21491934     0.05260
C591        C  0.03838434  0.73614325  0.23376205    -0.07040
C592        C  0.03664284  0.73498728  0.26882226    -0.07780
C593        C  0.00557395  0.74226082  0.28522628    -0.02330
C594        C  0.47521724  0.75078806  0.26634491     0.04480
N595        N  0.44256497  0.75849659  0.28193486     0.66990
H596        H  0.45393819  0.75820301  0.21661238     0.15890
H597        H  0.05966489  0.72880935  0.28359567     0.15600
N598        N  0.07098840  0.72800946  0.21805603     0.74700
O599        O  0.41626107  0.77745631  0.26730654    -0.38750
O600        O  0.43924810  0.74387758  0.30848016    -0.38700
O601        O  0.07431659  0.74231535  0.19132340    -0.39400
O602        O  0.09721388  0.70868586  0.23251824    -0.39470
C603        C  0.03107676  0.62775027  0.41339610    -0.11750
C604        C  0.00150022  0.62814086  0.42959787     0.05260
C605        C  0.47269849  0.65799133  0.42919949    -0.07040
C606        C  0.47380697  0.68593943  0.41072797    -0.07780
C607        C  0.00307713  0.68491306  0.39340422    -0.02330
C608        C  0.03220831  0.65564758  0.39524422     0.04480
N609        N  0.06340769  0.65415726  0.37985676     0.66990
H610        H  0.05321918  0.60513916  0.41409366     0.15890
H611        H  0.45189251  0.70890197  0.41021307     0.15600
N612        N  0.44298230  0.66091059  0.44846304     0.74700
O613        O  0.09021211  0.64598529  0.39715242    -0.38750
O614        O  0.06547808  0.65476583  0.34840503    -0.38700
O615        O  0.44572984  0.64680450  0.47665586    -0.39400
O616        O  0.41442446  0.68119661  0.43953155    -0.39470
C617        C  0.01557341  0.80355088  0.42336829    -0.11750
C618        C  0.99809211  0.80583635  0.39280245     0.05260
C619        C  0.47975700  0.83837793  0.37990128    -0.07040
C620        C  0.48128205  0.86721558  0.39663157    -0.07780
C621        C  0.99919198  0.86463481  0.42669837    -0.02330
C622        C  0.01599244  0.83247925  0.44077059     0.04480
N623        N  0.03343130  0.82853833  0.47248188     0.66990
H624        H  0.02994938  0.77895639  0.43342632     0.15890
H625        H  0.46753247  0.89203750  0.38659968     0.15600
N626        N  0.45841902  0.84280815  0.35079483     0.74700
O627        O  0.03544422  0.80374612  0.99104202    -0.38750
O628        O  0.04898392  0.84816080  0.48107220    -0.38700
O629        O  0.43887777  0.82594327  0.34743034    -0.39400
O630        O  0.45615842  0.86626506  0.33037969    -0.39470
C631        C  0.47502606  0.65641747  0.07071434    -0.11750
C632        C  0.00338668  0.62682239  0.07366867     0.05260
C633        C  0.03073301  0.62686209  0.09439280    -0.07040
C634        C  0.02911090  0.65646060  0.11147871    -0.07780
C635        C  0.00107867  0.68617583  0.10819426    -0.02330
C636        C  0.47339143  0.68624969  0.08777378     0.04480
N637        N  0.44324039  0.71566449  0.08493122     0.66990
H638        H  0.45378655  0.65603554  0.05539255     0.15890
H639        H  0.05027475  0.65646782  0.12713116     0.15600
N640        N  0.05969249  0.59695421  0.09950300     0.74700
O641        O  0.42476454  0.71990892  0.05913348    -0.38750
O642        O  0.43298890  0.73557522  0.10940655    -0.38700
O643        O  0.07659901  0.58152675  0.07479995    -0.39400
O644        O  0.07191779  0.58959346  0.12853404    -0.39470
C645        C  0.47519740  0.82153279  0.08723504    -0.11750
C646        C  0.00389547  0.80387016  0.10614835     0.05260
C647        C  0.03099529  0.81633369  0.10853579    -0.07040
C648        C  0.02799771  0.84707064  0.09320501    -0.07780
C649        C  0.99894914  0.86548283  0.07470110    -0.02330
C650        C  0.47222374  0.85218777  0.07166397     0.04480
N651        N  0.44147163  0.86967095  0.05396128     0.66990
H652        H  0.45430931  0.81202076  0.08562070     0.15890
H653        H  0.04921081  0.85604964  0.09496609     0.15600
N654        N  0.06213816  0.79751858  0.12522576     0.74700
O655        O  0.42936615  0.85370008  0.03363423    -0.38750
O656        O  0.42320216  0.89882223  0.06336710    -0.38700
O657        O  0.07437305  0.76578581  0.12210976    -0.39400
O658        O  0.07966674  0.81279210  0.13944913    -0.39470
C659        C  0.36747966  0.95927624  0.42261165    -0.11750
C660        C  0.37263889  0.99061753  0.42209479     0.05260
C661        C  0.34833474  0.51817029  0.40574175    -0.07040
C662        C  0.31962184  0.51392390  0.39117467    -0.07780
C663        C  0.31455804  0.98272527  0.39215782    -0.02330
C664        C  0.33883168  0.95486748  0.40801260     0.04480
N665        N  0.33552396  0.92189572  0.40899375     0.66990
H666        H  0.38590746  0.93782155  0.43477246     0.15890
H667        H  0.30119056  0.53514847  0.37865139     0.15600
N668        N  0.35195956  0.55069865  0.40397756     0.74700
O669        O  0.36164487  0.89570839  0.41013400    -0.38750
O670        O  0.30695122  0.91873095  0.41242387    -0.38700
O671        O  0.37306925  0.55523532  0.38393772    -0.39400
O672        O  0.32932673  0.57607003  0.41628444    -0.39470
C673        C  0.16014932  0.95742369  0.42559186    -0.11750
C674        C  0.13601687  0.98998351  0.42959699     0.05260
C675        C  0.14306116  0.51801981  0.41668932    -0.07040
C676        C  0.17332886  0.51272152  0.39946146    -0.07780
C677        C  0.19698258  0.98024575  0.39496577    -0.02330
C678        C  0.19064229  0.95199019  0.40839247     0.04480
N679        N  0.21427705  0.91794098  0.40482763     0.66990
H680        H  0.15482065  0.93588185  0.43549720     0.15890
H681        H  0.17842829  0.53426326  0.38918219     0.15600
N682        N  0.11921677  0.55171647  0.41874270     0.74700
O683        O  0.21288264  0.89500365  0.42437839    -0.38750
O684        O  0.23511594  0.90992355  0.38100614    -0.38700
O685        O  0.11237607  0.56617652  0.44685400    -0.39400
O686        O  0.11194032  0.56946202  0.39258399    -0.39470
C687        C  0.31200807  0.50758419  0.08461716    -0.11750
C688        C  0.31757934  0.98128108  0.10781701     0.05260
C689        C  0.35112142  0.95992678  0.11462454    -0.07040
C690        C  0.37810524  0.96671298  0.09953143    -0.07780
C691        C  0.37252890  0.99286227  0.07629722    -0.02330
C692        C  0.33897899  0.51343771  0.06824130     0.04480
N693        N  0.33154461  0.53947674  0.04310455     0.66990
H694        H  0.28631566  0.52399043  0.07947308     0.15890
H695        H  0.40383324  0.95053064  0.10489163     0.15600
N696        N  0.35815786  0.93026378  0.13506489     0.74700
O697        O  0.30321525  0.54905368  0.02831057    -0.38750
O698        O  0.35213745  0.55448317  0.03684772    -0.38700
O699        O  0.33954436  0.91230233  0.13303961    -0.39400
O700        O  0.38555005  0.91924729  0.15138601    -0.39470
C701        C  0.18407910  0.50862436  0.08595764    -0.11750
C702        C  0.19896918  0.98009365  0.10600069     0.05260
C703        C  0.18478970  0.95420344  0.10608879    -0.07040
C704        C  0.15470934  0.95875892  0.08838191    -0.07780
C705        C  0.13854336  0.98808829  0.06938485    -0.02330
C706        C  0.15480811  0.51250207  0.06681337     0.04480
N707        N  0.14344204  0.54029430  0.04389765     0.66990
H708        H  0.19595141  0.52772515  0.08452628     0.15890
H709        H  0.14400067  0.93877881  0.08966498     0.15600
N710        N  0.20152032  0.92224120  0.12193836     0.74700
O711        O  0.14450514  0.56881731  0.05250930    -0.38750
O712        O  0.14075530  0.53443567  0.01319636    -0.38700
O713        O  0.20694475  0.92068383  0.15306074    -0.39400
O714        O  0.20546924  0.89524209  0.10591534    -0.39470
O715        O  0.09253377  0.96857337  0.56041446    -0.74770
O716        O  0.08975397  0.51768083  0.53534172    -0.53680
C717        C  0.10487657  0.99189638  0.55383274     0.78960
O718        O  0.02287253  0.90727651  0.93478818    -0.59370
O719        O  0.47588351  0.90967643  0.96454192    -0.52400
C720        C  0.49923379  0.89593479  0.94307239     0.70970
O721        O  0.09116763  0.96936113  0.93781016    -0.73930
O722        O  0.08894356  0.51782725  0.96476674    -0.54500
C723        C  0.10312860  0.99292284  0.94498450     0.76970
O724        O  0.02183771  0.90915322  0.56616737    -0.59080
O725        O  0.47603513  0.91004152  0.53519612    -0.52200
C726        C  0.49861031  0.89705957  0.55771926     0.73570
Zr727      Zr  0.04154703  0.95504286  0.55007558     2.54710
O728        O  0.08962469  0.90267373  0.55397385    -0.79640
O729        O  0.03952096  0.96125049  0.61073140    -0.93060
Zr730      Zr  0.04147255  0.95443413  0.95009938     2.64680
O731        O  0.09180979  0.90396719  0.94691369    -0.98010
O732        O  0.03713626  0.95935138  0.88941770    -0.80020
O733        O  0.06103743  0.97213214  0.00017182    -0.83430
O734        O  0.02376501  0.93566173  0.00008737    -2.18140
O735        O  0.41344160  0.51885917  0.56650768    -0.66820
O736        O  0.41542996  0.97184214  0.53648755    -0.51390
C737        C  0.40220939  0.49492272  0.55846607     0.71950
O738        O  0.47635440  0.58647055  0.93870858    -0.59730
O739        O  0.02666063  0.58100139  0.96444774    -0.51710
C740        C  0.00136673  0.59660236  0.94548206     0.73750
O741        O  0.41373331  0.51754987  0.93262836    -0.71130
O742        O  0.41606700  0.97097276  0.96250415    -0.49800
C743        C  0.40269079  0.49345848  0.94014703     0.75130
O744        O  0.47815098  0.58538359  0.56417647    -0.66450
O745        O  0.02635366  0.58151883  0.53588353    -0.53650
C746        C  0.00266127  0.59585413  0.55683465     0.73520
Zr747      Zr  0.46012642  0.53766722  0.54975391     2.77540
O748        O  0.41057432  0.58902377  0.54940051    -0.97200
O749        O  0.46333669  0.53629823  0.61058826    -0.78020
Zr750      Zr  0.46006496  0.53706586  0.95012611     2.70070
O751        O  0.40825528  0.58599880  0.94796039    -0.79270
O752        O  0.46589140  0.53537152  0.88952560    -0.98360
Zr753      Zr  0.03927929  0.53205975  0.00021931     2.21500
Zr754      Zr  0.46373116  0.95930710  0.49992177     2.11130
O755        O  0.44045159  0.51954870  0.49986290    -2.47040
O756        O  0.47897343  0.55582767  0.50000512    -0.79060
O757        O  0.48166898  0.97768412  0.55076668    -0.71260
O758        O  0.02020632  0.51436916  0.94935342    -2.32220
O759        O  0.02030987  0.51496476  0.55095613    -2.28430
O760        O  0.48155122  0.97711834  0.94918894    -0.73020
H761        H  0.03141955  0.91129926  0.00030294     0.78980
H762        H  0.02875870  0.52270795  0.93017510     0.80060
H763        H  0.41600841  0.52729733  0.49968782     0.82290
H764        H  0.02907456  0.52334035  0.57019281     0.79900
H765        H  0.04519488  0.97821059  0.88396593     0.42930
H766        H  0.46412558  0.51336326  0.88280577     0.41900
H767        H  0.40910584  0.59909908  0.96838792     0.41580
H768        H  0.39744012  0.58682024  0.52942372     0.39510
H769        H  0.46938854  0.51208821  0.61628952     0.42650
H770        H  0.04815662  0.97994210  0.61546502     0.37430
H771        H  0.09910106  0.89897216  0.53108601     0.43550
H772        H  0.08802016  0.88823164  0.96344515     0.39960
H773        H  0.39682493  0.58676804  0.56866105     0.44880
H774        H  0.05760340  0.94078217  0.61896265     0.43600
H775        H  0.09022220  0.89374279  0.92487095     0.43740
H776        H  0.44463604  0.55238725  0.88130769     0.44100
C777        C  0.00406717  0.77373312  0.62498075     0.03650
C778        C  0.00659910  0.77339646  0.66004210    -0.12500
C779        C  0.00749487  0.74464209  0.67802957     0.01150
C780        C  0.00537875  0.71633269  0.66092018    -0.11030
C781        C  0.00215985  0.71665999  0.62596131     0.03640
C782        C  0.00146953  0.74544282  0.60804944    -0.10450
H783        H  0.00778047  0.79549469  0.67331272     0.09240
H784        H  0.00576573  0.69419237  0.67486293     0.06760
H785        H  0.99956331  0.74557598  0.58098404     0.06610
C786        C  0.00062086  0.77402035  0.87445053     0.03650
C787        C  0.00460756  0.77187004  0.83947027    -0.12500
C788        C  0.00539151  0.74263961  0.82211184     0.01150
C789        C  0.00508622  0.71420459  0.83983177    -0.11030
C790        C  0.00311170  0.71512401  0.87480299     0.03640
C791        C  0.99991287  0.74527531  0.89191068    -0.10450
H792        H  0.00646916  0.79310789  0.82548326     0.09240
H793        H  0.00566462  0.69162135  0.82631934     0.06760
H794        H  0.99687911  0.74619375  0.91883364     0.06610
C795        C  0.28808331  0.97789883  0.62578353     0.03650
C796        C  0.25906816  0.97813167  0.60797620    -0.12500
C797        C  0.23022561  0.97736397  0.62493622     0.01150
C798        C  0.23047840  0.97663050  0.66002888    -0.11030
C799        C  0.25967746  0.97508137  0.67813684     0.03640
C800        C  0.28814277  0.97641630  0.66091937    -0.10450
H801        H  0.25876144  0.97930415  0.58088387     0.09240
H802        H  0.20777501  0.97766484  0.67334904     0.06760
H803        H  0.30991234  0.97750924  0.67489008     0.06610
C804        C  0.28470281  0.97970783  0.87469935     0.03650
C805        C  0.25602034  0.98050575  0.89283604    -0.12500
C806        C  0.22785519  0.97731571  0.87620030     0.01150
C807        C  0.22799678  0.97426997  0.84126179    -0.11030
C808        C  0.25563514  0.97579906  0.82274260     0.03640
C809        C  0.28425456  0.97782592  0.83965517    -0.10450
H810        H  0.25569638  0.98344131  0.91981311     0.09240
H811        H  0.20624055  0.97154069  0.82851303     0.06760
H812        H  0.30598090  0.97841795  0.82555140     0.06610
C813        C  0.23571392  0.00201254  0.73195063    -0.11750
C814        C  0.25920791  0.97477117  0.71518610     0.05260
C815        C  0.28076484  0.94748163  0.73395245    -0.07040
C816        C  0.27834108  0.94797773  0.76892717    -0.07780
C817        C  0.25492460  0.97531388  0.78572783    -0.02330
C818        C  0.23333083  0.00275608  0.76695420     0.04480
N819        N  0.20994426  0.53217169  0.78277485     0.66990
H820        H  0.21885321  0.52290271  0.71761818     0.15890
H821        H  0.29519087  0.92704728  0.78316419     0.15600
N822        N  0.30479047  0.91886003  0.71797101     0.74700
O823        O  0.20778305  0.56113652  0.77251884    -0.38750
O824        O  0.18739190  0.52953835  0.80210247    -0.38700
O825        O  0.33226683  0.92095736  0.70759577    -0.39400
O826        O  0.30232668  0.89003305  0.72150615    -0.39470
C827        C  0.47697571  0.75208611  0.73136981    -0.11750
C828        C  0.00798812  0.74489849  0.71492672     0.05260
C829        C  0.03838465  0.73614587  0.73376900    -0.07040
C830        C  0.03664325  0.73498133  0.76882902    -0.07780
C831        C  0.00557401  0.74225179  0.78523268    -0.02330
C832        C  0.47521710  0.75078655  0.76635053     0.04480
N833        N  0.44256412  0.75849510  0.78193892     0.66990
H834        H  0.45393832  0.75821378  0.71661806     0.15890
H835        H  0.05966548  0.72879920  0.78360260     0.15600
N836        N  0.07098866  0.72801203  0.71806229     0.74700
O837        O  0.41626097  0.77745559  0.76731000    -0.38750
O838        O  0.43924590  0.74387618  0.80848375    -0.38700
O839        O  0.07431654  0.74231580  0.69132809    -0.39400
O840        O  0.09721399  0.70868551  0.73252229    -0.39470
C841        C  0.03110802  0.62774737  0.91343522    -0.11750
C842        C  0.00153641  0.62812777  0.92963962     0.05260
C843        C  0.47272224  0.65796928  0.92922648    -0.07040
C844        C  0.47381934  0.68591644  0.91074403    -0.07780
C845        C  0.00308549  0.68489818  0.89341753    -0.02330
C846        C  0.03222464  0.65564090  0.89526639     0.04480
N847        N  0.06341709  0.65415267  0.87986587     0.66990
H848        H  0.05325810  0.60514339  0.91413790     0.15890
H849        H  0.45189774  0.70887228  0.91022111     0.15600
N850        N  0.44300230  0.66088192  0.94848162     0.74700
O851        O  0.09022902  0.64597596  0.89715016    -0.38750
O852        O  0.06547472  0.65476035  0.84841300    -0.38700
O853        O  0.44574582  0.64678085  0.97667657    -0.39400
O854        O  0.41444443  0.68116345  0.93954347    -0.39470
C855        C  0.01557120  0.80354621  0.92337219    -0.11750
C856        C  0.99808994  0.80582953  0.89280652     0.05260
C857        C  0.47975783  0.83837132  0.87990243    -0.07040
C858        C  0.48128418  0.86720981  0.89663090    -0.07780
C859        C  0.99919317  0.86463091  0.92669804    -0.02330
C860        C  0.01599227  0.83247573  0.94077192     0.04480
N861        N  0.03343178  0.82853629  0.97248271     0.66990
H862        H  0.02994576  0.77895223  0.93343215     0.15890
H863        H  0.46753603  0.89203130  0.88659728     0.15600
N864        N  0.45842130  0.84280167  0.85079478     0.74700
O865        O  0.03544332  0.80374727  0.49103979    -0.38750
O866        O  0.04898394  0.84815962  0.98107160    -0.38700
O867        O  0.43887867  0.82593836  0.84742991    -0.39400
O868        O  0.45616049  0.86625984  0.83038106    -0.39470
C869        C  0.47499576  0.65643206  0.57075672    -0.11750
C870        C  0.00335025  0.62683393  0.57371093     0.05260
C871        C  0.03071018  0.62687024  0.59441747    -0.07040
C872        C  0.02910133  0.65646985  0.61149341    -0.07780
C873        C  0.00107216  0.68618825  0.60821003    -0.02330
C874        C  0.47337711  0.68626579  0.58780016     0.04480
N875        N  0.44323498  0.71568764  0.58494808     0.66990
H876        H  0.45375025  0.65605340  0.55544232     0.15890
H877        H  0.05027283  0.65647621  0.62713491     0.15600
N878        N  0.05967329  0.59696191  0.59951302     0.74700
O879        O  0.42476291  0.71993073  0.55914762    -0.38750
O880        O  0.43298310  0.73560305  0.60941970    -0.38700
O881        O  0.07656569  0.58153919  0.57480045    -0.39400
O882        O  0.07192007  0.58960188  0.62853643    -0.39470
C883        C  0.47519706  0.82153724  0.58723831    -0.11750
C884        C  0.00389500  0.80387646  0.60615244     0.05260
C885        C  0.03099608  0.81633783  0.60853642    -0.07040
C886        C  0.02799904  0.84707329  0.59320352    -0.07780
C887        C  0.99894977  0.86548501  0.57470018    -0.02330
C888        C  0.47222403  0.85219036  0.57166440     0.04480
N889        N  0.44147211  0.86967238  0.55396089     0.66990
H890        H  0.45430872  0.81202540  0.58562566     0.15890
H891        H  0.04921281  0.85605147  0.59496272     0.15600
N892        N  0.06213930  0.79752175  0.62522524     0.74700
O893        O  0.42936722  0.85370023  0.53363465    -0.38750
O894        O  0.42320160  0.89882339  0.56336638    -0.38700
O895        O  0.07437275  0.76578883  0.62210967    -0.39400
O896        O  0.07966861  0.81279431  0.63944884    -0.39470
C897        C  0.36747959  0.95927622  0.92261162    -0.11750
C898        C  0.37263882  0.99061749  0.92209479     0.05260
C899        C  0.34836881  0.51817269  0.90574915    -0.07040
C900        C  0.31965736  0.51392778  0.89117527    -0.07780
C901        C  0.31455799  0.98272527  0.89215781    -0.02330
C902        C  0.33883162  0.95486747  0.90801257     0.04480
N903        N  0.33552392  0.92189571  0.90899370     0.66990
H904        H  0.38590738  0.93782149  0.93477240     0.15890
H905        H  0.30122818  0.53515353  0.87865153     0.15600
N906        N  0.35199144  0.55070240  0.90399318     0.74700
O907        O  0.36164484  0.89570838  0.91013396    -0.38750
O908        O  0.30695119  0.91873093  0.91242388    -0.38700
O909        O  0.37310465  0.55524194  0.88395971    -0.39400
O910        O  0.32934581  0.57607291  0.91628554    -0.39470
C911        C  0.16014925  0.95742359  0.92559182    -0.11750
C912        C  0.13601674  0.98998337  0.92959692     0.05260
C913        C  0.14309908  0.51798683  0.91665635    -0.07040
C914        C  0.17336841  0.51269711  0.89943686    -0.07780
C915        C  0.19698254  0.98024570  0.89496580    -0.02330
C916        C  0.19064225  0.95199013  0.90839249     0.04480
N917        N  0.21427705  0.91794094  0.90482767     0.66990
H918        H  0.15482060  0.93588172  0.93549715     0.15890
H919        H  0.17846590  0.53424281  0.88916458     0.15600
N920        N  0.11925217  0.55168151  0.91871912     0.74700
O921        O  0.21288266  0.89500360  0.92437844    -0.38750
O922        O  0.23511595  0.90992352  0.88100619    -0.38700
O923        O  0.11242821  0.56613867  0.94683315    -0.39400
O924        O  0.11195959  0.56942964  0.89256270    -0.39470
C925        C  0.31197539  0.50757587  0.58461205    -0.11750
C926        C  0.31757936  0.98128105  0.60781701     0.05260
C927        C  0.35112145  0.95992678  0.61462455    -0.07040
C928        C  0.37810527  0.96671305  0.59953149    -0.07780
C929        C  0.37252891  0.99286236  0.57629730    -0.02330
C930        C  0.33894553  0.51343347  0.56824105     0.04480
N931        N  0.33151171  0.53947442  0.54310602     0.66990
H932        H  0.28628308  0.52398176  0.57946711     0.15890
H933        H  0.40383327  0.95053076  0.60489174     0.15600
N934        N  0.35815790  0.93026377  0.63506489     0.74700
O935        O  0.30318335  0.54905112  0.52831044    -0.38750
O936        O  0.35210516  0.55448006  0.53684905    -0.38700
O937        O  0.33954440  0.91230231  0.63303961    -0.39400
O938        O  0.38555007  0.91924729  0.65138604    -0.39470
C939        C  0.18403380  0.50865323  0.58593605    -0.11750
C940        C  0.19896925  0.98009364  0.60600071     0.05260
C941        C  0.18478976  0.95420343  0.60608877    -0.07040
C942        C  0.15470943  0.95875895  0.58838187    -0.07780
C943        C  0.13854349  0.98808836  0.56938483    -0.02330
C944        C  0.15476177  0.51253624  0.56678829     0.04480
N945        N  0.14340040  0.54032826  0.54387164     0.66990
H946        H  0.19591030  0.52775070  0.58450658     0.15890
H947        H  0.14400074  0.93877884  0.58966490     0.15600
N948        N  0.20152036  0.92224117  0.62193833     0.74700
O949        O  0.14448275  0.56884597  0.55247595    -0.38750
O950        O  0.14069151  0.53447177  0.51317349    -0.38700
O951        O  0.20694483  0.92068378  0.65306071    -0.39400
O952        O  0.20546921  0.89524208  0.60591531    -0.39470
O953        O  0.59257218  0.46852198  0.06039103    -0.74770
O954        O  0.58978319  0.01767387  0.03536862    -0.53680
C955        C  0.60491525  0.49184506  0.05380904     0.78960
O956        O  0.52284239  0.40728522  0.43479528    -0.59370
O957        O  0.97585376  0.40968249  0.46454916    -0.52400
C958        C  0.99920567  0.39594180  0.44308065     0.70970
O959        O  0.59114012  0.46936536  0.43782422    -0.73930
O960        O  0.58891202  0.01787272  0.46477564    -0.54500
C961        C  0.60309809  0.49292956  0.44499792     0.76970
O962        O  0.52184393  0.40912785  0.06616087    -0.59080
O963        O  0.97602815  0.41002944  0.03520359    -0.52200
C964        C  0.99860706  0.39704436  0.05772144     0.73570
Zr965      Zr  0.54157795  0.45499903  0.05007097     2.54710
O966        O  0.58963819  0.40261606  0.05400802    -0.79640
O967        O  0.53954075  0.46122732  0.11072452    -0.93060
Zr968      Zr  0.54143774  0.45444462  0.45010112     2.64680
O969        O  0.59177694  0.40397908  0.44691689    -0.98010
O970        O  0.53710462  0.45936101  0.38941943    -0.80020
O971        O  0.56100070  0.47214497  0.50017050    -0.83430
O972        O  0.52372804  0.43567411  0.50008860    -2.18140
O973        O  0.91346009  0.01886789  0.06647831    -0.66820
O974        O  0.91543607  0.47183551  0.03650892    -0.51390
C975        C  0.90222936  0.99493235  0.05843115     0.71950
O976        O  0.97633047  0.08649280  0.43868393    -0.59730
O977        O  0.52663058  0.08102974  0.46443433    -0.51710
C978        C  0.50134502  0.09662166  0.44545658     0.73750
O979        O  0.91370143  0.01756830  0.43264353    -0.71130
O980        O  0.91603263  0.47098034  0.46250271    -0.49800
C981        C  0.90267667  0.99346269  0.44015312     0.75130
O982        O  0.97817685  0.08537947  0.06416654    -0.66450
O983        O  0.52638422  0.08151282  0.03588112    -0.53650
C984        C  0.50268705  0.09585038  0.05682717     0.73520
Zr985      Zr  0.96015997  0.03765949  0.04974742     2.77540
O986        O  0.91061294  0.08902092  0.04939740    -0.97200
O987        O  0.96336559  0.03628242  0.11058191    -0.78020
Zr988      Zr  0.96002715  0.03710068  0.45012130     2.70070
O989        O  0.90818836  0.08600150  0.44789128    -0.79270
O990        O  0.96583889  0.03540770  0.38951945    -0.98360
Zr991      Zr  0.53923829  0.03210527  0.50022308     2.21500
Zr992      Zr  0.96373798  0.45928754  0.99992848     2.11130
O993        O  0.94048757  0.01954007  0.99985688    -2.47040
O994        O  0.97901305  0.05581516  0.00000088    -0.79060
O995        O  0.98170001  0.47764824  0.05076771    -0.71260
O996        O  0.52016881  0.01441180  0.44935514    -2.32220
O997        O  0.52034315  0.01495490  0.05095544    -2.28430
O998        O  0.98151577  0.47712798  0.44919670    -0.73020
H999        H  0.53138404  0.41131276  0.50030456     0.78980
H1000       H  0.52872088  0.02275124  0.43017800     0.80060
H1001       H  0.91604441  0.02728989  0.99968016     0.82290
H1002       H  0.52910508  0.02333145  0.07019344     0.79900
H1003       H  0.54518796  0.47820334  0.38396641     0.42930
H1004       H  0.96408747  0.01339255  0.38280359     0.41900
H1005       H  0.90900015  0.09911882  0.46831720     0.41580
H1006       H  0.89747340  0.08681694  0.02942488     0.39510
H1007       H  0.96939188  0.01207452  0.11628093     0.42650
H1008       H  0.54819646  0.47990568  0.11545463     0.37430
H1009       H  0.59913230  0.39890185  0.03112757     0.43550
H1010       H  0.58799139  0.38824613  0.46345378     0.39960
H1011       H  0.89686664  0.08676976  0.06866237     0.44880
H1012       H  0.55760649  0.44075105  0.11896507     0.43600
H1013       H  0.59018722  0.39374979  0.42487732     0.43740
H1014       H  0.94457416  0.05241185  0.38130531     0.44100
C1015       C  0.50406326  0.27372899  0.12498345     0.03650
C1016       C  0.50659610  0.27339352  0.16004393    -0.12500
C1017       C  0.50749482  0.24463885  0.17803098     0.01150
C1018       C  0.50538011  0.21632862  0.16092262    -0.11030
C1019       C  0.50216050  0.21665605  0.12596402     0.03640
C1020       C  0.50146799  0.24543869  0.10805203    -0.10450
H1021       H  0.50777602  0.29549265  0.17331405     0.09240
H1022       H  0.50576918  0.19418779  0.17486567     0.06760
H1023       H  0.49956203  0.24557177  0.08098655     0.06610
C1024       C  0.50062256  0.27402926  0.37444647     0.03650
C1025       C  0.50460879  0.27188076  0.33946625    -0.12500
C1026       C  0.50539328  0.24265027  0.32210803     0.01150
C1027       C  0.50509066  0.21421482  0.33982664    -0.11030
C1028       C  0.50311608  0.21513447  0.37479671     0.03640
C1029       C  0.49991570  0.24528433  0.39190566    -0.10450
H1030       H  0.50646846  0.29311964  0.32547963     0.09240
H1031       H  0.50566964  0.19163143  0.32631400     0.06760
H1032       H  0.49688048  0.24620202  0.41882850     0.06610
C1033       C  0.78807461  0.47791569  0.12582378     0.03650
C1034       C  0.75908532  0.47812518  0.10798519    -0.12500
C1035       C  0.73023639  0.47733150  0.12491307     0.01150
C1036       C  0.73044904  0.47660049  0.16000272    -0.11030
C1037       C  0.75961743  0.47508187  0.17814432     0.03640
C1038       C  0.78809837  0.47643077  0.16096022    -0.10450
H1039       H  0.75880416  0.47929672  0.08089306     0.09240
H1040       H  0.70773650  0.47761366  0.17329429     0.06760
H1041       H  0.80985089  0.47753030  0.17495582     0.06610
C1042       C  0.78467282  0.47972214  0.37468567     0.03650
C1043       C  0.75600167  0.48052393  0.39284381    -0.12500
C1044       C  0.72783076  0.47732137  0.37623132     0.01150
C1045       C  0.72795399  0.47425973  0.34129538    -0.11030
C1046       C  0.75557294  0.47579893  0.32275137     0.03640
C1047       C  0.78420082  0.47783719  0.33964193    -0.10450
H1048       H  0.75569368  0.48346542  0.41981988     0.09240
H1049       H  0.70620207  0.47149582  0.32857012     0.06760
H1050       H  0.80591719  0.47843027  0.32552188     0.06610
C1051       C  0.73551658  0.50193298  0.23195320    -0.11750
C1052       C  0.75910651  0.47475993  0.21519213     0.05260
C1053       C  0.78075137  0.44753062  0.23396009    -0.07040
C1054       C  0.77834020  0.44802010  0.26893388    -0.07780
C1055       C  0.75484113  0.47529650  0.28573556    -0.02330
C1056       C  0.73314307  0.50267471  0.26695760     0.04480
N1057       N  0.71020383  0.03230122  0.28277701     0.66990
H1058       H  0.71914811  0.02303282  0.21761979     0.15890
H1059       H  0.79526296  0.42713331  0.28316799     0.15600
N1060       N  0.80485817  0.41897374  0.21797469     0.74700
O1061       O  0.70810540  0.06123895  0.27249156    -0.38750
O1062       O  0.68767108  0.02974565  0.30217675    -0.38700
O1063       O  0.83242663  0.42108540  0.20789203    -0.39400
O1064       O  0.80231722  0.39014906  0.22123285    -0.39470
C1065       C  0.97697574  0.25208615  0.23136937    -0.11750
C1066       C  0.50798834  0.24489703  0.21492663     0.05260
C1067       C  0.53838513  0.23614687  0.23376785    -0.07040
C1068       C  0.53664393  0.23498703  0.26882738    -0.07780
C1069       C  0.50557461  0.24226056  0.28523063    -0.02330
C1070       C  0.97521747  0.25079048  0.26634979     0.04480
N1071       N  0.94256515  0.25849697  0.28193911     0.66990
H1072       H  0.95393841  0.25821147  0.21661780     0.15890
H1073       H  0.55966617  0.22880636  0.28360081     0.15600
N1074       N  0.57098896  0.22801151  0.21806068     0.74700
O1075       O  0.91626090  0.27745574  0.26731054    -0.38750
O1076       O  0.93924866  0.24387632  0.30848343    -0.38700
O1077       O  0.57431713  0.24231559  0.19132682    -0.39400
O1078       O  0.59721417  0.20868547  0.23252131    -0.39470
C1079       C  0.53109706  0.12775308  0.41340622    -0.11750
C1080       C  0.50152285  0.12813909  0.42960917     0.05260
C1081       C  0.97271549  0.15798475  0.42920660    -0.07040
C1082       C  0.97381782  0.18593306  0.41073188    -0.07780
C1083       C  0.50308605  0.18491091  0.39340743    -0.02330
C1084       C  0.53222142  0.15564985  0.39524920     0.04480
N1085       N  0.56341730  0.15416280  0.37985637     0.66990
H1086       H  0.55324284  0.10514511  0.41410522     0.15890
H1087       H  0.95189986  0.20889239  0.41021454     0.15600
N1088       N  0.94299894  0.16089890  0.44846764     0.74700
O1089       O  0.59022430  0.14599304  0.39714790    -0.38750
O1090       O  0.56548304  0.15476864  0.34840408    -0.38700
O1091       O  0.94574649  0.14679297  0.47666053    -0.39400
O1092       O  0.91443973  0.18118043  0.43953374    -0.39470
C1093       C  0.51556726  0.30355323  0.42337038    -0.11750
C1094       C  0.49808657  0.30583695  0.39280449     0.05260
C1095       C  0.97974682  0.33837755  0.37990400    -0.07040
C1096       C  0.98126266  0.36721669  0.39663770    -0.07780
C1097       C  0.49916958  0.36463795  0.42670594    -0.02330
C1098       C  0.51597917  0.33248276  0.44077483     0.04480
N1099       N  0.53342117  0.32854326  0.47248423     0.66990
H1100       H  0.52994838  0.27895939  0.43342658     0.15890
H1101       H  0.96750924  0.39203795  0.38660652     0.15600
N1102       N  0.95841399  0.34280523  0.35079410     0.74700
O1103       O  0.53543989  0.30373994  0.99104044    -0.38750
O1104       O  0.54897127  0.34816865  0.48107224    -0.38700
O1105       O  0.93887437  0.32593903  0.34742630    -0.39400
O1106       O  0.95615596  0.36626132  0.33037875    -0.39470
C1107       C  0.97501236  0.15642736  0.07074828    -0.11750
C1108       C  0.50337018  0.12683207  0.07370298     0.05260
C1109       C  0.53072466  0.12687020  0.09441605    -0.07040
C1110       C  0.52910917  0.15646895  0.11149609    -0.07780
C1111       C  0.50107733  0.18618433  0.10821191    -0.02330
C1112       C  0.97338621  0.18626033  0.08779711     0.04480
N1113       N  0.94324092  0.21567934  0.08494578     0.66990
H1114       H  0.95376997  0.15604650  0.05543028     0.15890
H1115       H  0.55027756  0.15647703  0.12714143     0.15600
N1116       N  0.55968871  0.09696386  0.09951406     0.74700
O1117       O  0.92476943  0.21992120  0.05914501    -0.38750
O1118       O  0.93298646  0.23559358  0.10941789    -0.38700
O1119       O  0.57658834  0.08154634  0.07480321    -0.39400
O1120       O  0.57192828  0.08960081  0.12853970    -0.39470
C1121       C  0.97518790  0.32153216  0.08724592    -0.11750
C1122       C  0.50388884  0.30387085  0.10615592     0.05260
C1123       C  0.53099045  0.31633099  0.10853833    -0.07040
C1124       C  0.52799277  0.34706457  0.09320541    -0.07780
C1125       C  0.49894207  0.36547601  0.07470535    -0.02330
C1126       C  0.97221366  0.35218533  0.07167321     0.04480
N1127       N  0.94145944  0.36967088  0.05397443     0.66990
H1128       H  0.95429902  0.31202086  0.08563603     0.15890
H1129       H  0.54920790  0.35604094  0.09496188     0.15600
N1130       N  0.56213475  0.29751640  0.12522596     0.74700
O1131       O  0.92935270  0.35370316  0.03364508    -0.38750
O1132       O  0.92319092  0.39882114  0.06338440    -0.38700
O1133       O  0.57437043  0.26578385  0.12210868    -0.39400
O1134       O  0.57966505  0.31279065  0.13944512    -0.39470
C1135       C  0.86745992  0.45927801  0.42258595    -0.11750
C1136       C  0.87261924  0.49061887  0.42207472     0.05260
C1137       C  0.84834795  0.01816939  0.40576899    -0.07040
C1138       C  0.81963281  0.01392117  0.39120921    -0.07780
C1139       C  0.81454218  0.48273049  0.39212471    -0.02330
C1140       C  0.83881347  0.45487101  0.40798103     0.04480
N1141       N  0.83550372  0.42189999  0.40896153     0.66990
H1142       H  0.88588470  0.43782342  0.43474998     0.15890
H1143       H  0.80119954  0.03514427  0.37868589     0.15600
N1144       N  0.85197231  0.05069764  0.40399758     0.74700
O1145       O  0.86162372  0.39571201  0.41010655    -0.38750
O1146       O  0.80693009  0.41873647  0.41238801    -0.38700
O1147       O  0.87308265  0.05522976  0.38395559    -0.39400
O1148       O  0.82933574  0.07607218  0.41629482    -0.39470
C1149       C  0.66012553  0.45742885  0.42562236    -0.11750
C1150       C  0.63599156  0.48998871  0.42962232     0.05260
C1151       C  0.64308066  0.01801400  0.41665435    -0.07040
C1152       C  0.67334128  0.01271505  0.39941234    -0.07780
C1153       C  0.69696865  0.48025192  0.39501403    -0.02330
C1154       C  0.69062327  0.45199538  0.40843157     0.04480
N1155       N  0.71425601  0.41794534  0.40486405     0.66990
H1156       H  0.65479285  0.43588685  0.43552159     0.15890
H1157       H  0.67843867  0.03425672  0.38913032     0.15600
N1158       N  0.61924144  0.05171207  0.41872288     0.74700
O1159       O  0.71285350  0.39500504  0.42440655    -0.38750
O1160       O  0.73510279  0.40993065  0.38104915    -0.38700
O1161       O  0.61241281  0.06616149  0.44684024    -0.39400
O1162       O  0.61195845  0.06946809  0.39257128    -0.39470
C1163       C  0.81199715  0.00756483  0.08455858    -0.11750
C1164       C  0.81758208  0.48130651  0.10788136     0.05260
C1165       C  0.85112171  0.45994673  0.11469073    -0.07040
C1166       C  0.87811145  0.46671718  0.09958429    -0.07780
C1167       C  0.87254310  0.49285915  0.07633963    -0.02330
C1168       C  0.83896485  0.01343261  0.06819273     0.04480
N1169       N  0.83152923  0.03947910  0.04306336     0.66990
H1170       H  0.78630314  0.02396830  0.07941724     0.15890
H1171       H  0.90383717  0.45052785  0.10494256     0.15600
N1172       N  0.85814966  0.43029372  0.13514623     0.74700
O1173       O  0.80320234  0.04905454  0.02826503    -0.38750
O1174       O  0.85211944  0.05449088  0.03681497    -0.38700
O1175       O  0.83951385  0.41235238  0.13315674    -0.39400
O1176       O  0.88554688  0.41927000  0.15145796    -0.39470
C1177       C  0.68404574  0.00867174  0.08599912    -0.11750
C1178       C  0.69900532  0.48004292  0.10595152     0.05260
C1179       C  0.68483573  0.45414654  0.10603381    -0.07040
C1180       C  0.65475780  0.45869803  0.08832964    -0.07780
C1181       C  0.63858426  0.48803365  0.06934639    -0.02330
C1182       C  0.65477535  0.01254996  0.06684923     0.04480
N1183       N  0.64342260  0.04033211  0.04392039     0.66990
H1184       H  0.69592587  0.02776567  0.08455891     0.15890
H1185       H  0.64405474  0.43871345  0.08960845     0.15600
N1186       N  0.70156973  0.42218667  0.12188377     0.74700
O1187       O  0.64450429  0.06885256  0.05251533    -0.38750
O1188       O  0.64072688  0.03446234  0.01322319    -0.38700
O1189       O  0.70691008  0.42062674  0.15302013    -0.39400
O1190       O  0.70556417  0.39518850  0.10584263    -0.39470
O1191       O  0.59251235  0.46857149  0.56037325    -0.74770
O1192       O  0.58978329  0.01767411  0.53536869    -0.53680
C1193       C  0.60485551  0.49189331  0.55378880     0.78960
O1194       O  0.52287284  0.40725230  0.93479519    -0.59370
O1195       O  0.97587272  0.40967042  0.96454127    -0.52400
C1196       C  0.99922405  0.39592404  0.94307510     0.70970
O1197       O  0.59118466  0.46932615  0.93778796    -0.73930
O1198       O  0.58891189  0.01787250  0.96477559    -0.54500
C1199       C  0.60314970  0.49288456  0.94496603     0.76970
O1200       O  0.52181471  0.40915885  0.56616712    -0.59080
O1201       O  0.97601080  0.41004365  0.53519974    -0.52200
C1202       C  0.99858937  0.39706247  0.55772036     0.73570
Zr1203     Zr  0.54151478  0.45505238  0.55007360     2.54710
O1204       O  0.58959014  0.40268208  0.55398064    -0.79640
O1205       O  0.53950509  0.46126859  0.61072853    -0.93060
Zr1206     Zr  0.54149718  0.45439191  0.95010055     2.64680
O1207       O  0.59182386  0.40391272  0.94689345    -0.98010
O1208       O  0.53713631  0.45931473  0.88942090    -0.80020
O1209       O  0.56107636  0.47208306  0.00016814    -0.83430
O1210       O  0.52377383  0.43563722  0.00008777    -2.18140
O1211       O  0.91346009  0.01886813  0.56647847    -0.66820
O1212       O  0.91540253  0.47183720  0.53651440    -0.51390
C1213       C  0.90222935  0.99493259  0.55843126     0.71950
O1214       O  0.97633048  0.08649239  0.93868413    -0.59730
O1215       O  0.52663060  0.08102924  0.96443454    -0.51710
C1216       C  0.50134504  0.09662121  0.94545685     0.73750
O1217       O  0.91370138  0.01756814  0.93264362    -0.71130
O1218       O  0.91606508  0.47097724  0.96251140    -0.49800
C1219       C  0.90267664  0.99346251  0.94015312     0.75130
O1220       O  0.97817681  0.08538001  0.56416682    -0.66450
O1221       O  0.52638415  0.08151339  0.53588135    -0.53650
C1222       C  0.50268701  0.09585093  0.55682748     0.73520
Zr1223     Zr  0.96015985  0.03766009  0.54974757     2.77540
O1224       O  0.91061271  0.08902133  0.54939752    -0.97200
O1225       O  0.96336548  0.03628262  0.61058205    -0.78020
Zr1226     Zr  0.96002724  0.03710017  0.95012138     2.70070
O1227       O  0.90818852  0.08600116  0.94789144    -0.79270
O1228       O  0.96583892  0.03540757  0.88951952    -0.98360
Zr1229     Zr  0.53923828  0.03210463  0.00022304     2.21500
Zr1230     Zr  0.96369361  0.45931369  0.49992846     2.11130
O1231       O  0.94048720  0.01954116  0.49985694    -2.47040
O1232       O  0.97901303  0.05581546  0.50000089    -0.79060
O1233       O  0.98163703  0.47769145  0.55077008    -0.71260
O1234       O  0.52016887  0.01441107  0.94935509    -2.32220
O1235       O  0.52034307  0.01495568  0.55095546    -2.28430
O1236       O  0.98157542  0.47708557  0.94919798    -0.73020
H1237       H  0.53142090  0.41127955  0.00030406     0.78980
H1238       H  0.52872092  0.02275058  0.93017796     0.80060
H1239       H  0.91604405  0.02729087  0.49968020     0.82290
H1240       H  0.52910503  0.02333216  0.57019347     0.79900
H1241       H  0.54520156  0.47816828  0.88396408     0.42930
H1242       H  0.96408745  0.01339248  0.88280352     0.41900
H1243       H  0.90900043  0.09911856  0.96831726     0.41580
H1244       H  0.89747325  0.08681727  0.52942496     0.39510
H1245       H  0.96939183  0.01207467  0.61628090     0.42650
H1246       H  0.54816206  0.47994673  0.61545536     0.37430
H1247       H  0.59907514  0.39898244  0.53109623     0.43550
H1248       H  0.58804322  0.38818324  0.96343735     0.39960
H1249       H  0.89686641  0.08677003  0.56866244     0.44880
H1250       H  0.55757588  0.44079118  0.61895951     0.43600
H1251       H  0.59021633  0.39368421  0.92485775     0.43740
H1252       H  0.94457421  0.05241180  0.88130546     0.44100
C1253       C  0.50406577  0.27373224  0.62498107     0.03650
C1254       C  0.50659812  0.27339622  0.66004202    -0.12500
C1255       C  0.50749510  0.24464171  0.67802935     0.01150
C1256       C  0.50537997  0.21633170  0.66092090    -0.11030
C1257       C  0.50216127  0.21665869  0.62596228     0.03640
C1258       C  0.50146957  0.24544149  0.60805013    -0.10450
H1259       H  0.50777843  0.29549502  0.67331239     0.09240
H1260       H  0.50576816  0.19419115  0.67486399     0.06760
H1261       H  0.49956347  0.24557433  0.58098471     0.06610
C1262       C  0.50062041  0.27402586  0.87444465     0.03650
C1263       C  0.50460801  0.27187826  0.83946494    -0.12500
C1264       C  0.50539344  0.24264797  0.82210645     0.01150
C1265       C  0.50509097  0.21421215  0.83982459    -0.11030
C1266       C  0.50311550  0.21513174  0.87479461     0.03640
C1267       C  0.49991356  0.24528130  0.89190358    -0.10450
H1268       H  0.50646786  0.29311751  0.82547902     0.09240
H1269       H  0.50567058  0.19162873  0.82631171     0.06760
H1270       H  0.49687723  0.24619896  0.91882633     0.06610
C1271       C  0.78804000  0.47790524  0.62581023     0.03650
C1272       C  0.75904486  0.47813095  0.60797078    -0.12500
C1273       C  0.73019000  0.47735054  0.62489740     0.01150
C1274       C  0.73040573  0.47661418  0.65998865    -0.11030
C1275       C  0.75958135  0.47507797  0.67812976     0.03640
C1276       C  0.78806445  0.47641736  0.66094518    -0.10450
H1277       H  0.75876381  0.47930565  0.58087886     0.09240
H1278       H  0.70769171  0.47763435  0.67328126     0.06760
H1279       H  0.80981974  0.47751028  0.67494043     0.06610
C1280       C  0.78470791  0.47972801  0.87467437     0.03650
C1281       C  0.75603885  0.48052089  0.89283081    -0.12500
C1282       C  0.72787403  0.47730801  0.87621637     0.01150
C1283       C  0.72799616  0.47425025  0.84128210    -0.11030
C1284       C  0.75560759  0.47580433  0.82273896     0.03640
C1285       C  0.78423441  0.47784842  0.83962912    -0.10450
H1286       H  0.75572884  0.48346053  0.91980715     0.09240
H1287       H  0.70624710  0.47147955  0.82855684     0.06760
H1288       H  0.80594776  0.47844845  0.82550858     0.06610
C1289       C  0.73549860  0.50192755  0.73194551    -0.11750
C1290       C  0.75908065  0.47475345  0.71517823     0.05260
C1291       C  0.78074399  0.44753127  0.73394307    -0.07040
C1292       C  0.77835644  0.44802761  0.76891815    -0.07780
C1293       C  0.75486534  0.47530417  0.78572459    -0.02330
C1294       C  0.73314848  0.50267497  0.76695153     0.04480
N1295       N  0.71020391  0.03230127  0.78277699     0.66990
H1296       H  0.71914822  0.02303283  0.71761978     0.15890
H1297       H  0.79529030  0.42714502  0.78314897     0.15600
N1298       N  0.80485029  0.41897623  0.71795520     0.74700
O1299       O  0.70810543  0.06123898  0.77249144    -0.38750
O1300       O  0.68767124  0.02974574  0.80217686    -0.38700
O1301       O  0.83242484  0.42108670  0.70788977    -0.39400
O1302       O  0.80231360  0.39015055  0.72122098    -0.39470
C1303       C  0.97697573  0.25208705  0.73136822    -0.11750
C1304       C  0.50798833  0.24489895  0.71492540     0.05260
C1305       C  0.53838514  0.23614756  0.73376690    -0.07040
C1306       C  0.53664391  0.23498661  0.76882633    -0.07780
C1307       C  0.50557469  0.24225938  0.78522934    -0.02330
C1308       C  0.97521750  0.25079017  0.76634868     0.04480
N1309       N  0.94256524  0.25849665  0.78193829     0.66990
H1310       H  0.95393836  0.25821276  0.71661670     0.15890
H1311       H  0.55966611  0.22880546  0.78359990     0.15600
N1312       N  0.57098916  0.22801182  0.71806013     0.74700
O1313       O  0.91626093  0.27745584  0.76731016    -0.38750
O1314       O  0.93924886  0.24387636  0.80848291    -0.38700
O1315       O  0.57431779  0.24231569  0.69132631    -0.39400
O1316       O  0.59721409  0.20868560  0.73252105    -0.39470
C1317       C  0.53109734  0.12775231  0.91340660    -0.11750
C1318       C  0.50152299  0.12813850  0.92960946     0.05260
C1319       C  0.97271556  0.15798408  0.92920658    -0.07040
C1320       C  0.97381774  0.18593180  0.91073106    -0.07780
C1321       C  0.50308572  0.18490889  0.89340583    -0.02330
C1322       C  0.53222152  0.15564860  0.89524879     0.04480
N1323       N  0.56341747  0.15416194  0.87985627     0.66990
H1324       H  0.55324327  0.10514452  0.91410615     0.15890
H1325       H  0.95189980  0.20889117  0.91021342     0.15600
N1326       N  0.94299899  0.16089865  0.94846775     0.74700
O1327       O  0.59022430  0.14599283  0.89714803    -0.38750
O1328       O  0.56548341  0.15476838  0.84840404    -0.38700
O1329       O  0.94574647  0.14679288  0.97666070    -0.39400
O1330       O  0.91443985  0.18118032  0.93953382    -0.39470
C1331       C  0.51556694  0.30354459  0.92336862    -0.11750
C1332       C  0.49808487  0.30583149  0.89280322     0.05260
C1333       C  0.97974583  0.33837260  0.87990355    -0.07040
C1334       C  0.98126530  0.36720960  0.89663711    -0.07780
C1335       C  0.49917689  0.36462636  0.92670248    -0.02330
C1336       C  0.51598275  0.33247191  0.94077238     0.04480
N1337       N  0.53342450  0.32853163  0.97248222     0.66990
H1338       H  0.52994697  0.27895022  0.93342429     0.15890
H1339       H  0.96751367  0.39203199  0.88660729     0.15600
N1340       N  0.95841282  0.34280270  0.85079350     0.74700
O1341       O  0.53544179  0.30374876  0.49104057    -0.38750
O1342       O  0.54897790  0.34815415  0.98106989    -0.38700
O1343       O  0.93887260  0.32593739  0.84742395    -0.39400
O1344       O  0.95615570  0.36625974  0.83037957    -0.39470
C1345       C  0.97501240  0.15642806  0.57074860    -0.11750
C1346       C  0.50337014  0.12683275  0.57370333     0.05260
C1347       C  0.53072465  0.12687106  0.59441626    -0.07040
C1348       C  0.52910941  0.15647024  0.61149574    -0.07780
C1349       C  0.50107794  0.18618613  0.60821080    -0.02330
C1350       C  0.97338652  0.18626140  0.58779676     0.04480
N1351       N  0.94324103  0.21568010  0.58494560     0.66990
H1352       H  0.95376984  0.15604701  0.55543097     0.15890
H1353       H  0.55027783  0.15647833  0.62714101     0.15600
N1354       N  0.55968861  0.09696459  0.59951435     0.74700
O1355       O  0.92476922  0.21992157  0.55914509    -0.38750
O1356       O  0.93298656  0.23559416  0.60941783    -0.38700
O1357       O  0.57658807  0.08154669  0.57480356    -0.39400
O1358       O  0.57192799  0.08960133  0.62854003    -0.39470
C1359       C  0.97518856  0.32153555  0.58724247    -0.11750
C1360       C  0.50388984  0.30387591  0.60615257     0.05260
C1361       C  0.53098989  0.31633902  0.60853293    -0.07040
C1362       C  0.52798882  0.34707499  0.59319912    -0.07780
C1363       C  0.49893564  0.36548579  0.57470037    -0.02330
C1364       C  0.97221099  0.35218977  0.57166931     0.04480
N1365       N  0.94145511  0.36967269  0.55397268     0.66990
H1366       H  0.95430098  0.31202235  0.58563326     0.15890
H1367       H  0.54920163  0.35605491  0.59495485     0.15600
N1368       N  0.56213507  0.29752509  0.62522000     0.74700
O1369       O  0.92935003  0.35370346  0.53364345    -0.38750
O1370       O  0.92318373  0.39882087  0.56338539    -0.38700
O1371       O  0.57436935  0.26579194  0.62210717    -0.39400
O1372       O  0.57966397  0.31279960  0.63944107    -0.39470
C1373       C  0.86748746  0.45928057  0.92259247    -0.11750
C1374       C  0.87265288  0.49061899  0.92208062     0.05260
C1375       C  0.84834792  0.01816937  0.90576900    -0.07040
C1376       C  0.81963278  0.01392117  0.89120920    -0.07780
C1377       C  0.81457607  0.48273503  0.89211924    -0.02330
C1378       C  0.83884085  0.45487616  0.90798333     0.04480
N1379       N  0.83552546  0.42190742  0.90896587     0.66990
H1380       H  0.88590870  0.43782510  0.93475877     0.15890
H1381       H  0.80119952  0.03514427  0.87868588     0.15600
N1382       N  0.85197231  0.05069761  0.90399761     0.74700
O1383       O  0.86164258  0.39571678  0.91011183    -0.38750
O1384       O  0.80694985  0.41874851  0.91239295    -0.38700
O1385       O  0.87308266  0.05522972  0.88395561    -0.39400
O1386       O  0.82933575  0.07607216  0.91629484    -0.39470
C1387       C  0.66016901  0.45739259  0.92557497    -0.11750
C1388       C  0.63603370  0.48994984  0.92957929     0.05260
C1389       C  0.64308056  0.01801389  0.91665434    -0.07040
C1390       C  0.67334121  0.01271498  0.89941238    -0.07780
C1391       C  0.69701375  0.48023021  0.89499233    -0.02330
C1392       C  0.69067031  0.45196777  0.90839654     0.04480
N1393       N  0.71431057  0.41792108  0.90483250     0.66990
H1394       H  0.65483782  0.43584687  0.93546673     0.15890
H1395       H  0.67843860  0.03425667  0.88913040     0.15600
N1396       N  0.61924136  0.05171198  0.91872288     0.74700
O1397       O  0.71291272  0.39498018  0.92437670    -0.38750
O1398       O  0.73515870  0.40990924  0.88101868    -0.38700
O1399       O  0.61241279  0.06616140  0.94684024    -0.39400
O1400       O  0.61195844  0.06946801  0.89257128    -0.39470
C1401       C  0.81199715  0.00756480  0.58455856    -0.11750
C1402       C  0.81754968  0.48129531  0.60787271     0.05260
C1403       C  0.85109083  0.45994018  0.61468862    -0.07040
C1404       C  0.87807921  0.46671364  0.59958433    -0.07780
C1405       C  0.87250849  0.49285574  0.57634058    -0.02330
C1406       C  0.83896485  0.01343263  0.56819273     0.04480
N1407       N  0.83152920  0.03947909  0.54306333     0.66990
H1408       H  0.78630313  0.02396824  0.57941720     0.15890
H1409       H  0.90380580  0.45052763  0.60494440     0.15600
N1410       N  0.85812344  0.43029063  0.63515021     0.74700
O1411       O  0.80320231  0.04905450  0.52826501    -0.38750
O1412       O  0.85211940  0.05449088  0.53681490    -0.38700
O1413       O  0.83949308  0.41234366  0.63316442    -0.39400
O1414       O  0.88552264  0.41927256  0.65145976    -0.39470
C1415       C  0.68404584  0.00867176  0.58599917    -0.11750
C1416       C  0.69895554  0.48007079  0.60593173     0.05260
C1417       C  0.68478321  0.45417617  0.60600512    -0.07040
C1418       C  0.65470541  0.45873255  0.58829715    -0.07780
C1419       C  0.63853199  0.48807265  0.56931891    -0.02330
C1420       C  0.65477547  0.01255001  0.56684926     0.04480
N1421       N  0.64342270  0.04033216  0.54392044     0.66990
H1422       H  0.69592598  0.02776568  0.58455899     0.15890
H1423       H  0.64400080  0.43874885  0.58957133     0.15600
N1424       N  0.70151478  0.42221307  0.62185035     0.74700
O1425       O  0.64450427  0.06885264  0.55251541    -0.38750
O1426       O  0.64072695  0.03446241  0.51322324    -0.38700
O1427       O  0.70686998  0.42064776  0.65298428    -0.39400
O1428       O  0.70550951  0.39521720  0.60580506    -0.39470
O1429       O  0.59253356  0.96857317  0.06041445    -0.74770
O1430       O  0.58982068  0.51762811  0.03535516    -0.53680
C1431       C  0.60487642  0.99189620  0.05383272     0.78960
O1432       O  0.52287217  0.90727840  0.43478918    -0.59370
O1433       O  0.97588292  0.90967853  0.46454269    -0.52400
C1434       C  0.99923321  0.89593723  0.44307333     0.70970
O1435       O  0.59116782  0.96936139  0.43781014    -0.73930
O1436       O  0.58887401  0.51788420  0.46478025    -0.54500
C1437       C  0.60312876  0.99292306  0.44498455     0.76970
O1438       O  0.52183785  0.90915147  0.06616825    -0.59080
O1439       O  0.97603520  0.91004014  0.03519686    -0.52200
C1440       C  0.99861020  0.89705790  0.05772023     0.73570
Zr1441     Zr  0.54154693  0.95504188  0.05007572     2.54710
O1442       O  0.58962503  0.90267322  0.05397381    -0.79640
O1443       O  0.53952083  0.96125027  0.11073149    -0.93060
Zr1444     Zr  0.54147269  0.95443505  0.45009965     2.64680
O1445       O  0.59180956  0.90396764  0.44691373    -0.98010
O1446       O  0.53713642  0.95935154  0.38941791    -0.80020
O1447       O  0.56103779  0.97213286  0.50017187    -0.83430
O1448       O  0.52376488  0.93566283  0.50008746    -2.18140
O1449       O  0.91349264  0.51884859  0.06650833    -0.66820
O1450       O  0.91543000  0.97184174  0.03648755    -0.51390
C1451       C  0.90224796  0.49492108  0.05846280     0.71950
O1452       O  0.97630003  0.58649925  0.43867766    -0.59730
O1453       O  0.52659998  0.58103505  0.46442782    -0.51710
C1454       C  0.50131673  0.59662616  0.44544785     0.73750
O1455       O  0.91367716  0.51756949  0.43263598    -0.71130
O1456       O  0.91606699  0.97097313  0.46250432    -0.49800
C1457       C  0.90265023  0.49346553  0.44014463     0.75130
O1458       O  0.97820077  0.58536050  0.06414163    -0.66450
O1459       O  0.52641521  0.58148299  0.03586381    -0.53650
C1460       C  0.50270974  0.59583219  0.05679932     0.73520
Zr1461     Zr  0.96020232  0.53762190  0.04975196     2.77540
O1462       O  0.91067972  0.58900097  0.04935523    -0.97200
O1463       O  0.96344887  0.53623757  0.11058448    -0.78020
Zr1464     Zr  0.95999166  0.53711008  0.45012532     2.70070
O1465       O  0.90815189  0.58600950  0.44789350    -0.79270
O1466       O  0.96580803  0.53541461  0.38952377    -0.98360
Zr1467     Zr  0.53919781  0.53211645  0.50022059     2.21500
Zr1468     Zr  0.96373132  0.95930567  0.99992158     2.11130
O1469       O  0.94051828  0.51951573  0.99986256    -2.47040
O1470       O  0.97906289  0.55576083  0.00000427    -0.79060
O1471       O  0.98166889  0.97768338  0.05076642    -0.71260
O1472       O  0.52013210  0.51442107  0.44935335    -2.32220
O1473       O  0.52038671  0.51491219  0.05095416    -2.28430
O1474       O  0.98155133  0.97711900  0.44918897    -0.73020
H1475       H  0.53141940  0.91130043  0.50030303     0.78980
H1476       H  0.52868400  0.52275997  0.43017585     0.80060
H1477       H  0.91607731  0.52727174  0.99968752     0.82290
H1478       H  0.52915222  0.52328821  0.07019115     0.79900
H1479       H  0.54519483  0.97821082  0.38396587     0.42930
H1480       H  0.96406034  0.51339787  0.38280818     0.41900
H1481       H  0.90896878  0.59913383  0.46831289     0.41580
H1482       H  0.89751672  0.58676297  0.02941349     0.39510
H1483       H  0.96940153  0.51203788  0.11628594     0.42650
H1484       H  0.54815640  0.97994200  0.11546484     0.37430
H1485       H  0.59910140  0.89897190  0.03108596     0.43550
H1486       H  0.58801988  0.88823218  0.46344526     0.39960
H1487       H  0.89694978  0.58679712  0.06865250     0.44880
H1488       H  0.55760336  0.94078210  0.11896292     0.43600
H1489       H  0.59022175  0.89374328  0.42487103     0.43740
H1490       H  0.94454288  0.55241638  0.38130745     0.44100
C1491       C  0.50406757  0.77372427  0.12497403     0.03650
C1492       C  0.50659989  0.77338527  0.16003520    -0.12500
C1493       C  0.50749486  0.74463055  0.17802157     0.01150
C1494       C  0.50537784  0.71632152  0.16091049    -0.11030
C1495       C  0.50215897  0.71664986  0.12595074     0.03640
C1496       C  0.50146839  0.74543480  0.10804115    -0.10450
H1497       H  0.50778190  0.79548268  0.17330699     0.09240
H1498       H  0.50576555  0.69418048  0.17485230     0.06760
H1499       H  0.49956255  0.74556963  0.08097575     0.06610
C1500       C  0.50062385  0.77402942  0.37444418     0.03650
C1501       C  0.50460958  0.77188088  0.33946356    -0.12500
C1502       C  0.50539273  0.74265087  0.32210474     0.01150
C1503       C  0.50508854  0.71421593  0.33982382    -0.11030
C1504       C  0.50311271  0.71513567  0.37479412     0.03640
C1505       C  0.49991443  0.74528514  0.39190320    -0.10450
H1506       H  0.50647038  0.79311937  0.32547712     0.09240
H1507       H  0.50566625  0.69163296  0.32631116     0.06760
H1508       H  0.49687871  0.74620309  0.41882598     0.06610
C1509       C  0.78808327  0.97789887  0.12578352     0.03650
C1510       C  0.75906811  0.97813172  0.10797618    -0.12500
C1511       C  0.73022555  0.97736402  0.12493620     0.01150
C1512       C  0.73047836  0.97663055  0.16002886    -0.11030
C1513       C  0.75967742  0.97508141  0.17813683     0.03640
C1514       C  0.78814273  0.97641633  0.16091936    -0.10450
H1515       H  0.75876140  0.97930420  0.08088386     0.09240
H1516       H  0.70777497  0.97766488  0.17334903     0.06760
H1517       H  0.80991231  0.97750926  0.17489007     0.06610
C1518       C  0.78470285  0.97970783  0.37469935     0.03650
C1519       C  0.75602037  0.98050576  0.39283603    -0.12500
C1520       C  0.72785523  0.97731573  0.37620028     0.01150
C1521       C  0.72799681  0.97426999  0.34126177    -0.11030
C1522       C  0.75563516  0.97579907  0.32274259     0.03640
C1523       C  0.78425459  0.97782593  0.33965516    -0.10450
H1524       H  0.75569641  0.98344133  0.41981310     0.09240
H1525       H  0.70624057  0.97154072  0.32851302     0.06760
H1526       H  0.80598094  0.97841795  0.32555138     0.06610
C1527       C  0.73571388  0.00201255  0.23195063    -0.11750
C1528       C  0.75920789  0.97477120  0.21518609     0.05260
C1529       C  0.78076485  0.94748167  0.23395243    -0.07040
C1530       C  0.77834110  0.94797777  0.26892715    -0.07780
C1531       C  0.75492462  0.97531390  0.28572782    -0.02330
C1532       C  0.73333082  0.00275609  0.26695420     0.04480
N1533       N  0.70993726  0.53217444  0.28277522     0.66990
H1534       H  0.71888211  0.52291137  0.21762177     0.15890
H1535       H  0.79519090  0.92704732  0.28316417     0.15600
N1536       N  0.80479049  0.91886008  0.21797098     0.74700
O1537       O  0.70778167  0.56113766  0.27251896    -0.38750
O1538       O  0.68738199  0.52954583  0.30210166    -0.38700
O1539       O  0.83226688  0.92095742  0.20759584    -0.39400
O1540       O  0.80232665  0.89003311  0.22150604    -0.39470
C1541       C  0.97697564  0.75207918  0.23136347    -0.11750
C1542       C  0.50798818  0.74488851  0.21491934     0.05260
C1543       C  0.53838435  0.73614324  0.23376205    -0.07040
C1544       C  0.53664286  0.73498727  0.26882226    -0.07780
C1545       C  0.50557396  0.74226082  0.28522628    -0.02330
C1546       C  0.97521723  0.75078806  0.26634491     0.04480
N1547       N  0.94256496  0.75849658  0.28193486     0.66990
H1548       H  0.95393818  0.75820299  0.21661238     0.15890
H1549       H  0.55966491  0.72880933  0.28359567     0.15600
N1550       N  0.57098841  0.72800945  0.21805602     0.74700
O1551       O  0.91626105  0.77745628  0.26730653    -0.38750
O1552       O  0.93924809  0.74387758  0.30848016    -0.38700
O1553       O  0.57431661  0.74231533  0.19132340    -0.39400
O1554       O  0.59721389  0.70868583  0.23251823    -0.39470
C1555       C  0.53107676  0.62775025  0.41339607    -0.11750
C1556       C  0.50150022  0.62814086  0.42959787     0.05260
C1557       C  0.97269849  0.65799133  0.42919948    -0.07040
C1558       C  0.97380696  0.68593942  0.41072795    -0.07780
C1559       C  0.50307713  0.68491306  0.39340422    -0.02330
C1560       C  0.53220830  0.65564757  0.39524419     0.04480
N1561       N  0.56340767  0.65415724  0.37985671     0.66990
H1562       H  0.55321916  0.60513914  0.41409361     0.15890
H1563       H  0.95189250  0.70890196  0.41021304     0.15600
N1564       N  0.94298228  0.66091059  0.44846302     0.74700
O1565       O  0.59021209  0.64598533  0.39715237    -0.38750
O1566       O  0.56547806  0.65476572  0.34840498    -0.38700
O1567       O  0.94572982  0.64680450  0.47665585    -0.39400
O1568       O  0.91442445  0.68119660  0.43953152    -0.39470
C1569       C  0.51557341  0.80355088  0.42336829    -0.11750
C1570       C  0.49809211  0.80583635  0.39280245     0.05260
C1571       C  0.97975700  0.83837794  0.37990128    -0.07040
C1572       C  0.98128205  0.86721558  0.39663156    -0.07780
C1573       C  0.49919198  0.86463481  0.42669838    -0.02330
C1574       C  0.51599244  0.83247925  0.44077059     0.04480
N1575       N  0.53343130  0.82853832  0.47248189     0.66990
H1576       H  0.52994937  0.77895639  0.43342632     0.15890
H1577       H  0.96753247  0.89203750  0.38659968     0.15600
N1578       N  0.95841902  0.84280815  0.35079483     0.74700
O1579       O  0.53544426  0.80374612  0.99104201    -0.38750
O1580       O  0.54898392  0.84816079  0.48107221    -0.38700
O1581       O  0.93887777  0.82594328  0.34743034    -0.39400
O1582       O  0.95615843  0.86626507  0.33037969    -0.39470
C1583       C  0.97502606  0.65641746  0.07071435    -0.11750
C1584       C  0.50338668  0.62682239  0.07366867     0.05260
C1585       C  0.53073301  0.62686209  0.09439281    -0.07040
C1586       C  0.52911090  0.65646060  0.11147872    -0.07780
C1587       C  0.50107868  0.68617583  0.10819426    -0.02330
C1588       C  0.97339142  0.68624969  0.08777379     0.04480
N1589       N  0.94324038  0.71566448  0.08493124     0.66990
H1590       H  0.95378654  0.65603553  0.05539257     0.15890
H1591       H  0.55027475  0.65646781  0.12713117     0.15600
N1592       N  0.55969248  0.59695420  0.09950302     0.74700
O1593       O  0.92476451  0.71990890  0.05913351    -0.38750
O1594       O  0.93298890  0.73557522  0.10940657    -0.38700
O1595       O  0.57659900  0.58152673  0.07479998    -0.39400
O1596       O  0.57191777  0.58959346  0.12853406    -0.39470
C1597       C  0.97519740  0.82153279  0.08723504    -0.11750
C1598       C  0.50389547  0.80387016  0.10614834     0.05260
C1599       C  0.53099530  0.81633368  0.10853578    -0.07040
C1600       C  0.52799771  0.84707064  0.09320500    -0.07780
C1601       C  0.49894914  0.86548283  0.07470110    -0.02330
C1602       C  0.97222374  0.85218777  0.07166396     0.04480
N1603       N  0.94147164  0.86967094  0.05396126     0.66990
H1604       H  0.95430931  0.81202075  0.08562069     0.15890
H1605       H  0.54921082  0.85604964  0.09496607     0.15600
N1606       N  0.56213816  0.79751857  0.12522574     0.74700
O1607       O  0.92936617  0.85370007  0.03363421    -0.38750
O1608       O  0.92320216  0.89882222  0.06336709    -0.38700
O1609       O  0.57437305  0.76578580  0.12210975    -0.39400
O1610       O  0.57966676  0.81279209  0.13944910    -0.39470
C1611       C  0.86747967  0.95927625  0.42261163    -0.11750
C1612       C  0.87263889  0.99061753  0.42209477     0.05260
C1613       C  0.84833474  0.51817029  0.40574174    -0.07040
C1614       C  0.81962184  0.51392391  0.39117466    -0.07780
C1615       C  0.81455804  0.98272527  0.39215781    -0.02330
C1616       C  0.83883168  0.95486749  0.40801259     0.04480
N1617       N  0.83552397  0.92189572  0.40899372     0.66990
H1618       H  0.88590747  0.93782155  0.43477243     0.15890
H1619       H  0.80119055  0.53514847  0.37865139     0.15600
N1620       N  0.85195956  0.55069866  0.40397756     0.74700
O1621       O  0.86164489  0.89570839  0.41013397    -0.38750
O1622       O  0.80695123  0.91873095  0.41242385    -0.38700
O1623       O  0.87306925  0.55523532  0.38393772    -0.39400
O1624       O  0.82932672  0.57607004  0.41628443    -0.39470
C1625       C  0.66014931  0.95742369  0.42559186    -0.11750
C1626       C  0.63601687  0.98998351  0.42959699     0.05260
C1627       C  0.64306117  0.51801981  0.41668933    -0.07040
C1628       C  0.67332886  0.51272152  0.39946146    -0.07780
C1629       C  0.69698258  0.98024575  0.39496577    -0.02330
C1630       C  0.69064229  0.95199019  0.40839247     0.04480
N1631       N  0.71427704  0.91794098  0.40482763     0.66990
H1632       H  0.65482064  0.93588185  0.43549720     0.15890
H1633       H  0.67842829  0.53426326  0.38918220     0.15600
N1634       N  0.61921678  0.55171648  0.41874271     0.74700
O1635       O  0.71288263  0.89500364  0.42437839    -0.38750
O1636       O  0.73511594  0.90992355  0.38100615    -0.38700
O1637       O  0.61237607  0.56617652  0.44685401    -0.39400
O1638       O  0.61194034  0.56946203  0.39258401    -0.39470
C1639       C  0.81200807  0.50758419  0.08461716    -0.11750
C1640       C  0.81757934  0.98128108  0.10781701     0.05260
C1641       C  0.85112141  0.95992677  0.11462454    -0.07040
C1642       C  0.87810524  0.96671297  0.09953143    -0.07780
C1643       C  0.87252890  0.99286226  0.07629722    -0.02330
C1644       C  0.83897898  0.51343771  0.06824130     0.04480
N1645       N  0.83154461  0.53947675  0.04310455     0.66990
H1646       H  0.78631566  0.52399045  0.07947308     0.15890
H1647       H  0.90383324  0.95053063  0.10489163     0.15600
N1648       N  0.85815786  0.93026378  0.13506489     0.74700
O1649       O  0.80321525  0.54905369  0.02831058    -0.38750
O1650       O  0.85213745  0.55448318  0.03684772    -0.38700
O1651       O  0.83954435  0.91230233  0.13303962    -0.39400
O1652       O  0.88555005  0.91924728  0.15138601    -0.39470
C1653       C  0.68407909  0.50862436  0.08595764    -0.11750
C1654       C  0.69896918  0.98009365  0.10600068     0.05260
C1655       C  0.68478970  0.95420344  0.10608878    -0.07040
C1656       C  0.65470934  0.95875892  0.08838189    -0.07780
C1657       C  0.63854336  0.98808829  0.06938484    -0.02330
C1658       C  0.65480810  0.51250207  0.06681337     0.04480
N1659       N  0.64344203  0.54029431  0.04389765     0.66990
H1660       H  0.69595140  0.52772516  0.08452629     0.15890
H1661       H  0.64400068  0.93877880  0.08966495     0.15600
N1662       N  0.70152033  0.92224119  0.12193834     0.74700
O1663       O  0.64450513  0.56881732  0.05250931    -0.38750
O1664       O  0.64075529  0.53443568  0.01319636    -0.38700
O1665       O  0.70694481  0.92068381  0.15306071    -0.39400
O1666       O  0.70546922  0.89524209  0.10591531    -0.39470
O1667       O  0.59253377  0.96857337  0.56041447    -0.74770
O1668       O  0.58975397  0.51768083  0.53534172    -0.53680
C1669       C  0.60487658  0.99189638  0.55383274     0.78960
O1670       O  0.52287252  0.90727651  0.93478818    -0.59370
O1671       O  0.97588351  0.90967643  0.96454192    -0.52400
C1672       C  0.99923380  0.89593479  0.94307239     0.70970
O1673       O  0.59116763  0.96936113  0.93781016    -0.73930
O1674       O  0.58894356  0.51782725  0.96476674    -0.54500
C1675       C  0.60312860  0.99292284  0.94498450     0.76970
O1676       O  0.52183771  0.90915322  0.56616737    -0.59080
O1677       O  0.97603513  0.91004153  0.53519612    -0.52200
C1678       C  0.99861030  0.89705958  0.55771926     0.73570
Zr1679     Zr  0.54154704  0.95504285  0.55007558     2.54710
O1680       O  0.58962470  0.90267373  0.55397383    -0.79640
O1681       O  0.53952097  0.96125048  0.61073140    -0.93060
Zr1682     Zr  0.54147254  0.95443413  0.95009938     2.64680
O1683       O  0.59180978  0.90396719  0.94691368    -0.98010
O1684       O  0.53713625  0.95935139  0.88941770    -0.80020
O1685       O  0.56103742  0.97213214  0.00017182    -0.83430
O1686       O  0.52376500  0.93566173  0.00008737    -2.18140
O1687       O  0.91344159  0.51885918  0.56650768    -0.66820
O1688       O  0.91542995  0.97184214  0.53648754    -0.51390
C1689       C  0.90220939  0.49492273  0.55846607     0.71950
O1690       O  0.97635441  0.58647055  0.93870858    -0.59730
O1691       O  0.52666063  0.58100139  0.96444774    -0.51710
C1692       C  0.50136673  0.59660236  0.94548206     0.73750
O1693       O  0.91373331  0.51754987  0.93262836    -0.71130
O1694       O  0.91606700  0.97097275  0.96250415    -0.49800
C1695       C  0.90269079  0.49345848  0.94014703     0.75130
O1696       O  0.97815098  0.58538360  0.56417646    -0.66450
O1697       O  0.52635365  0.58151883  0.53588353    -0.53650
C1698       C  0.50266127  0.59585412  0.55683466     0.73520
Zr1699     Zr  0.96012642  0.53766723  0.54975391     2.77540
O1700       O  0.91057431  0.58902377  0.54940051    -0.97200
O1701       O  0.96333669  0.53629824  0.61058826    -0.78020
Zr1702     Zr  0.96006496  0.53706585  0.95012610     2.70070
O1703       O  0.90825529  0.58599880  0.94796037    -0.79270
O1704       O  0.96589141  0.53537151  0.88952560    -0.98360
Zr1705     Zr  0.53927929  0.53205975  0.00021931     2.21500
Zr1706     Zr  0.96373116  0.95930710  0.49992177     2.11130
O1707       O  0.94045159  0.51954871  0.49986290    -2.47040
O1708       O  0.97897343  0.55582767  0.50000512    -0.79060
O1709       O  0.98166897  0.97768412  0.55076668    -0.71260
O1710       O  0.52020632  0.51436916  0.94935342    -2.32220
O1711       O  0.52030988  0.51496475  0.55095613    -2.28430
O1712       O  0.98155123  0.97711834  0.94918894    -0.73020
H1713       H  0.53141955  0.91129927  0.00030294     0.78980
H1714       H  0.52875870  0.52270795  0.93017510     0.80060
H1715       H  0.91600840  0.52729734  0.49968781     0.82290
H1716       H  0.52907456  0.52334034  0.57019281     0.79900
H1717       H  0.54519488  0.97821059  0.88396592     0.42930
H1718       H  0.96412559  0.51336325  0.88280576     0.41900
H1719       H  0.90910583  0.59909908  0.96838792     0.41580
H1720       H  0.89744012  0.58682024  0.52942372     0.39510
H1721       H  0.96938853  0.51208822  0.61628952     0.42650
H1722       H  0.54815661  0.97994211  0.61546502     0.37430
H1723       H  0.59910107  0.89897217  0.53108599     0.43550
H1724       H  0.58802016  0.88823165  0.96344514     0.39960
H1725       H  0.89682493  0.58676805  0.56866105     0.44880
H1726       H  0.55760344  0.94078217  0.61896265     0.43600
H1727       H  0.59022219  0.89374279  0.92487094     0.43740
H1728       H  0.94463605  0.55238724  0.88130769     0.44100
C1729       C  0.50406717  0.77373312  0.62498075     0.03650
C1730       C  0.50659910  0.77339646  0.66004210    -0.12500
C1731       C  0.50749486  0.74464209  0.67802957     0.01150
C1732       C  0.50537875  0.71633269  0.66092018    -0.11030
C1733       C  0.50215984  0.71665999  0.62596132     0.03640
C1734       C  0.50146952  0.74544282  0.60804945    -0.10450
H1735       H  0.50778047  0.79549469  0.67331272     0.09240
H1736       H  0.50576572  0.69419237  0.67486294     0.06760
H1737       H  0.49956331  0.74557598  0.58098404     0.06610
C1738       C  0.50062086  0.77402035  0.87445053     0.03650
C1739       C  0.50460755  0.77187004  0.83947027    -0.12500
C1740       C  0.50539151  0.74263962  0.82211185     0.01150
C1741       C  0.50508622  0.71420459  0.83983177    -0.11030
C1742       C  0.50311170  0.71512401  0.87480299     0.03640
C1743       C  0.49991286  0.74527531  0.89191068    -0.10450
H1744       H  0.50646914  0.79310790  0.82548327     0.09240
H1745       H  0.50566463  0.69162135  0.82631934     0.06760
H1746       H  0.49687911  0.74619375  0.91883365     0.06610
C1747       C  0.78808331  0.97789883  0.62578353     0.03650
C1748       C  0.75906816  0.97813167  0.60797620    -0.12500
C1749       C  0.73022561  0.97736397  0.62493622     0.01150
C1750       C  0.73047841  0.97663049  0.66002888    -0.11030
C1751       C  0.75967747  0.97508136  0.67813684     0.03640
C1752       C  0.78814277  0.97641630  0.66091937    -0.10450
H1753       H  0.75876144  0.97930416  0.58088388     0.09240
H1754       H  0.70777502  0.97766482  0.67334905     0.06760
H1755       H  0.80991234  0.97750925  0.67489007     0.06610
C1756       C  0.78470281  0.97970783  0.87469935     0.03650
C1757       C  0.75602034  0.98050575  0.89283604    -0.12500
C1758       C  0.72785519  0.97731571  0.87620030     0.01150
C1759       C  0.72799678  0.97426997  0.84126179    -0.11030
C1760       C  0.75563513  0.97579906  0.82274260     0.03640
C1761       C  0.78425456  0.97782593  0.83965517    -0.10450
H1762       H  0.75569638  0.98344131  0.91981311     0.09240
H1763       H  0.70624054  0.97154070  0.82851303     0.06760
H1764       H  0.80598090  0.97841795  0.82555139     0.06610
C1765       C  0.73571395  0.00201255  0.73195063    -0.11750
C1766       C  0.75920792  0.97477116  0.71518610     0.05260
C1767       C  0.78076482  0.94748160  0.73395245    -0.07040
C1768       C  0.77834105  0.94797771  0.76892717    -0.07780
C1769       C  0.75492460  0.97531389  0.78572783    -0.02330
C1770       C  0.73333086  0.00275611  0.76695420     0.04480
N1771       N  0.70994429  0.53217173  0.78277483     0.66990
H1772       H  0.71885326  0.52290274  0.71761817     0.15890
H1773       H  0.79519081  0.92704725  0.78316420     0.15600
N1774       N  0.80479042  0.91885998  0.71797102     0.74700
O1775       O  0.70778304  0.56113656  0.77251876    -0.38750
O1776       O  0.68739200  0.52953842  0.80210255    -0.38700
O1777       O  0.83226673  0.92095732  0.70759564    -0.39400
O1778       O  0.80232668  0.89003299  0.72150629    -0.39470
C1779       C  0.97697571  0.75208611  0.73136980    -0.11750
C1780       C  0.50798811  0.74489849  0.71492672     0.05260
C1781       C  0.53838465  0.73614587  0.73376901    -0.07040
C1782       C  0.53664325  0.73498133  0.76882902    -0.07780
C1783       C  0.50557401  0.74225179  0.78523268    -0.02330
C1784       C  0.97521710  0.75078654  0.76635053     0.04480
N1785       N  0.94256413  0.75849509  0.78193891     0.66990
H1786       H  0.95393833  0.75821377  0.71661806     0.15890
H1787       H  0.55966548  0.72879919  0.78360260     0.15600
N1788       N  0.57098866  0.72801203  0.71806229     0.74700
O1789       O  0.91626098  0.77745558  0.76731000    -0.38750
O1790       O  0.93924591  0.74387616  0.80848374    -0.38700
O1791       O  0.57431654  0.74231580  0.69132810    -0.39400
O1792       O  0.59721398  0.70868549  0.73252229    -0.39470
C1793       C  0.53110802  0.62774736  0.91343520    -0.11750
C1794       C  0.50153641  0.62812777  0.92963962     0.05260
C1795       C  0.97272223  0.65796928  0.92922646    -0.07040
C1796       C  0.97381933  0.68591644  0.91074401    -0.07780
C1797       C  0.50308549  0.68489818  0.89341753    -0.02330
C1798       C  0.53222463  0.65564089  0.89526637     0.04480
N1799       N  0.56341708  0.65415265  0.87986583     0.66990
H1800       H  0.55325809  0.60514338  0.91413786     0.15890
H1801       H  0.95189773  0.70887227  0.91022108     0.15600
N1802       N  0.94300229  0.66088191  0.94848160     0.74700
O1803       O  0.59022901  0.64597599  0.89715012    -0.38750
O1804       O  0.56547469  0.65476027  0.84841296    -0.38700
O1805       O  0.94574580  0.64678085  0.97667655    -0.39400
O1806       O  0.91444442  0.68116344  0.93954343    -0.39470
C1807       C  0.51557120  0.80354621  0.92337218    -0.11750
C1808       C  0.49808993  0.80582954  0.89280653     0.05260
C1809       C  0.97975785  0.83837132  0.87990241    -0.07040
C1810       C  0.98128420  0.86720981  0.89663089    -0.07780
C1811       C  0.49919317  0.86463091  0.92669804    -0.02330
C1812       C  0.51599227  0.83247573  0.94077191     0.04480
N1813       N  0.53343180  0.82853629  0.97248270     0.66990
H1814       H  0.52994578  0.77895223  0.93343214     0.15890
H1815       H  0.96753606  0.89203130  0.88659726     0.15600
N1816       N  0.95842134  0.84280167  0.85079476     0.74700
O1817       O  0.53544332  0.80374726  0.49103979    -0.38750
O1818       O  0.54898396  0.84815962  0.98107158    -0.38700
O1819       O  0.93887869  0.82593838  0.84742988    -0.39400
O1820       O  0.95616054  0.86625983  0.83038103    -0.39470
C1821       C  0.97499577  0.65643206  0.57075672    -0.11750
C1822       C  0.50335025  0.62683393  0.57371094     0.05260
C1823       C  0.53071018  0.62687024  0.59441747    -0.07040
C1824       C  0.52910133  0.65646985  0.61149342    -0.07780
C1825       C  0.50107215  0.68618825  0.60821003    -0.02330
C1826       C  0.97337711  0.68626580  0.58780015     0.04480
N1827       N  0.94323499  0.71568765  0.58494808     0.66990
H1828       H  0.95375026  0.65605341  0.55544232     0.15890
H1829       H  0.55027283  0.65647621  0.62713492     0.15600
N1830       N  0.55967329  0.59696191  0.59951303     0.74700
O1831       O  0.92476293  0.71993073  0.55914761    -0.38750
O1832       O  0.93298310  0.73560305  0.60941969    -0.38700
O1833       O  0.57656568  0.58153918  0.57480045    -0.39400
O1834       O  0.57192008  0.58960189  0.62853643    -0.39470
C1835       C  0.97519706  0.82153724  0.58723831    -0.11750
C1836       C  0.50389501  0.80387646  0.60615244     0.05260
C1837       C  0.53099609  0.81633782  0.60853642    -0.07040
C1838       C  0.52799905  0.84707328  0.59320352    -0.07780
C1839       C  0.49894978  0.86548500  0.57470018    -0.02330
C1840       C  0.97222402  0.85219036  0.57166439     0.04480
N1841       N  0.94147211  0.86967238  0.55396088     0.66990
H1842       H  0.95430872  0.81202540  0.58562566     0.15890
H1843       H  0.54921282  0.85605145  0.59496271     0.15600
N1844       N  0.56213931  0.79752173  0.62522524     0.74700
O1845       O  0.92936723  0.85370023  0.53363464    -0.38750
O1846       O  0.92320159  0.89882339  0.56336637    -0.38700
O1847       O  0.57437275  0.76578881  0.62210966    -0.39400
O1848       O  0.57966863  0.81279429  0.63944882    -0.39470
C1849       C  0.86747959  0.95927621  0.92261162    -0.11750
C1850       C  0.87263882  0.99061748  0.92209479     0.05260
C1851       C  0.84836881  0.51817269  0.90574914    -0.07040
C1852       C  0.81965736  0.51392779  0.89117527    -0.07780
C1853       C  0.81455799  0.98272527  0.89215781    -0.02330
C1854       C  0.83883162  0.95486747  0.90801258     0.04480
N1855       N  0.83552392  0.92189571  0.90899371     0.66990
H1856       H  0.88590738  0.93782149  0.93477241     0.15890
H1857       H  0.80122818  0.53515353  0.87865153     0.15600
N1858       N  0.85199145  0.55070240  0.90399317     0.74700
O1859       O  0.86164484  0.89570839  0.91013397    -0.38750
O1860       O  0.80695119  0.91873093  0.91242389    -0.38700
O1861       O  0.87310465  0.55524194  0.88395970    -0.39400
O1862       O  0.82934582  0.57607291  0.91628554    -0.39470
C1863       C  0.66014924  0.95742359  0.92559182    -0.11750
C1864       C  0.63601674  0.98998337  0.92959691     0.05260
C1865       C  0.64309908  0.51798684  0.91665635    -0.07040
C1866       C  0.67336841  0.51269711  0.89943687    -0.07780
C1867       C  0.69698254  0.98024570  0.89496580    -0.02330
C1868       C  0.69064225  0.95199013  0.90839249     0.04480
N1869       N  0.71427705  0.91794094  0.90482767     0.66990
H1870       H  0.65482060  0.93588172  0.93549714     0.15890
H1871       H  0.67846590  0.53424281  0.88916459     0.15600
N1872       N  0.61925217  0.55168151  0.91871913     0.74700
O1873       O  0.71288265  0.89500360  0.92437843    -0.38750
O1874       O  0.73511595  0.90992353  0.88100619    -0.38700
O1875       O  0.61242820  0.56613867  0.94683315    -0.39400
O1876       O  0.61195961  0.56942965  0.89256271    -0.39470
C1877       C  0.81197539  0.50757588  0.58461206    -0.11750
C1878       C  0.81757936  0.98128106  0.60781701     0.05260
C1879       C  0.85112144  0.95992679  0.61462454    -0.07040
C1880       C  0.87810527  0.96671305  0.59953148    -0.07780
C1881       C  0.87252890  0.99286237  0.57629730    -0.02330
C1882       C  0.83894552  0.51343348  0.56824105     0.04480
N1883       N  0.83151170  0.53947443  0.54310602     0.66990
H1884       H  0.78628307  0.52398177  0.57946712     0.15890
H1885       H  0.90383327  0.95053076  0.60489172     0.15600
N1886       N  0.85815789  0.93026378  0.63506487     0.74700
O1887       O  0.80318334  0.54905114  0.52831045    -0.38750
O1888       O  0.85210515  0.55448006  0.53684904    -0.38700
O1889       O  0.83954441  0.91230231  0.63303957    -0.39400
O1890       O  0.88555007  0.91924730  0.65138603    -0.39470
C1891       C  0.68403380  0.50865324  0.58593607    -0.11750
C1892       C  0.69896925  0.98009364  0.60600071     0.05260
C1893       C  0.68478977  0.95420342  0.60608877    -0.07040
C1894       C  0.65470943  0.95875895  0.58838186    -0.07780
C1895       C  0.63854349  0.98808836  0.56938484    -0.02330
C1896       C  0.65476177  0.51253624  0.56678831     0.04480
N1897       N  0.64340040  0.54032827  0.54387167     0.66990
H1898       H  0.69591029  0.52775070  0.58450660     0.15890
H1899       H  0.64400075  0.93877884  0.58966488     0.15600
N1900       N  0.70152037  0.92224116  0.62193831     0.74700
O1901       O  0.64448274  0.56884598  0.55247599    -0.38750
O1902       O  0.64069151  0.53447179  0.51317351    -0.38700
O1903       O  0.70694487  0.92068376  0.65306068    -0.39400
O1904       O  0.70546921  0.89524207  0.60591528    -0.39470
loop_ 
_geom_bond_atom_site_label_1 
_geom_bond_atom_site_label_2 
_geom_bond_distance 
_geom_bond_site_symmetry_2 
_ccdc_geom_bond_type 
O1          Zr13   2.431       .  S
O1            C3   1.287       .  A
O2         Zr277   2.438       .  S
O2          C479   1.287   1_545  A
C3          O478   1.287       .  A
C3          C229   1.500       .  S
O4          Zr16   2.444       .  S
O4          C958   1.287   1_455  A
O5         Zr278   2.423       .  S
O5            C6   1.285       .  A
C6          O956   1.287       .  A
C6         C1097   1.469       .  S
O7          Zr16   2.433       .  S
O7            C9   1.287       .  A
O8          Zr39   2.429       .  S
O8          C485   1.286   1_545  A
C9          O484   1.286       .  A
C9          C198   1.483       .  S
O10         Zr13   2.440       .  S
O10         C964   1.289   1_455  A
O11         Zr40   2.418   1_554  S
O11          C12   1.284       .  A
C12         O962   1.289       .  A
C12        C1125   1.492       .  S
Zr13         O14   2.433       .  S
Zr13         O15   2.436       .  S
Zr13        O257   2.368       .  S
Zr13        O258   2.365       .  S
Zr13        O995   2.367   1_455  S
Zr13        O521   2.371       .  S
O14          H57   0.990       .  S
O15          H56   0.990       .  S
O15          H60   0.990       .  S
Zr16         O17   2.436       .  S
Zr16         O18   2.436       .  S
Zr16         O20   2.369       .  S
Zr16         O19   2.370       .  S
Zr16        O520   2.374       .  S
Zr16        O998   2.369   1_455  S
O17          H58   0.990       .  S
O17          H61   0.990       .  S
O18          H51   0.990       .  S
O19        Zr251   2.368       .  S
O19        Zr515   2.373       .  S
O20        Zr251   2.365       .  S
O20       Zr1230   2.375   1_455  S
O20          H47   0.964       .  S
O21         Zr33   2.453       .  S
O21          C23   1.289   1_545  A
O22         Zr40   2.416   1_554  S
O22         C499   1.284       .  A
C23         O498   1.284       .  A
C23         C691   1.471       .  S
O24         Zr36   2.449       .  S
O24         C978   1.290       .  A
O25         Zr39   2.418       .  S
O25          C26   1.286       .  A
C26         O976   1.290   1_455  A
C26         C128   1.476       .  S
O27         Zr36   2.455       .  S
O27          C29   1.289   1_545  A
O28        Zr278   2.406       .  S
O28         C505   1.284       .  A
C29         O504   1.284       .  A
C29         C660   1.490       .  S
O30         Zr33   2.443       .  S
O30         C984   1.288       .  A
O31        Zr277   2.420       .  S
O31          C32   1.285       .  A
C32         O982   1.288   1_455  A
C32         C156   1.474       .  S
Zr33         O34   2.436       .  S
Zr33         O35   2.434       .  S
Zr33         O41   2.374   1_554  S
Zr33         O42   2.371       .  S
Zr33        O997   2.379       .  S
Zr33        O519   2.374   1_545  S
O34          H54   0.990       .  S
O34          H59   0.990       .  S
O35          H55   0.990       .  S
Zr36         O37   2.434       .  S
Zr36         O38   2.434       .  S
Zr36        O280   2.371       .  S
Zr36        O279   2.372       .  S
Zr36        O522   2.374   1_545  S
Zr36        O996   2.378       .  S
O37          H53   0.990       .  S
O38          H52   0.990       .  S
O38          H62   0.990       .  S
Zr39        O240   2.438       .  S
Zr39        O269   2.420       .  S
Zr39         O44   2.387       .  S
Zr39        O495   2.373   1_545  S
Zr39       O1232   2.383   1_455  S
Zr39        O283   2.386       .  S
Zr40        O243   2.423       .  S
Zr40        O266   2.406       .  S
Zr40         O43   2.378   1_556  S
Zr40       O1210   2.375   1_556  S
Zr40        O517   2.385       .  S
Zr40        O284   2.379       .  S
O41        Zr274   2.372       .  S
O41        Zr516   2.386   1_545  S
O41          H49   0.966       .  S
O42        Zr274   2.371   1_554  S
O42       Zr1229   2.383       .  S
O43        Zr965   2.367       .  S
O43        Zr509   2.374       .  S
O44        Zr492   2.374   1_545  S
O44        Zr988   2.378   1_455  S
O44          H48   0.966       .  S
O45        Zr489   2.371   1_545  S
O45        Zr985   2.379   1_455  S
O45        Zr277   2.386       .  S
O45          H50   0.966       .  S
O46        Zr968   2.369       .  S
O46        Zr512   2.374       .  S
O46        Zr278   2.379       .  S
C63         C170   1.477       .  S
C63          C64   1.404       .  A
C63          C68   1.403       .  A
C64          C65   1.401       .  A
C64          H69   1.084       .  S
C65         C114   1.475       .  S
C65          C66   1.400       .  A
C66          C67   1.402       .  A
C66          H70   1.084       .  S
C67         C159   1.477       .  S
C67          C68   1.403       .  A
C68          H71   1.084   1_455  S
C72         C142   1.495   1_455  S
C72          C73   1.408       .  A
C72          C77   1.410   1_455  A
C73          C74   1.400       .  A
C73          H78   1.083       .  S
C74         C117   1.474       .  S
C74          C75   1.399       .  A
C75          C76   1.400       .  A
C75          H79   1.084       .  S
C76         C131   1.478       .  S
C76          C77   1.404   1_455  A
C77          H80   1.083       .  S
C81         C212   1.486       .  S
C81          C82   1.405       .  A
C81          C86   1.406       .  A
C82          C83   1.403       .  A
C82          H87   1.084       .  S
C83         C226   1.482       .  S
C83          C84   1.403       .  A
C84          C85   1.403       .  A
C84          H88   1.084       .  S
C85         C100   1.481       .  S
C85          C86   1.402       .  A
C86          H89   1.083       .  S
C90         C187   1.475       .  S
C90          C91   1.402       .  A
C90          C95   1.403       .  A
C91          C92   1.400       .  A
C91          H96   1.084       .  S
C92         C201   1.471       .  S
C92          C93   1.401       .  A
C93          C94   1.402       .  A
C93          H97   1.084       .  S
C94         C103   1.480       .  S
C94          C95   1.404       .  A
C95          H98   1.084       .  S
C99         C100   1.402       .  A
C99         C104   1.403       .  A
C99         H582   1.084       .  S
C100        C101   1.411       .  A
C101        C102   1.402       .  A
C101        N108   1.431       .  S
C102        C103   1.403       .  A
C102        H107   1.084       .  S
C103        C104   1.416       .  A
C104        N581   1.437       .  S
N105        C580   1.437       .  S
N105        O109   1.262       .  A
N105        O110   1.261       .  A
H106        C575   1.084       .  S
N108        O111   1.261       .  A
N108        O112   1.262       .  A
C113        C118   1.403       .  A
C113       C1066   1.401       .  A
C113        H120   1.084       .  S
C114        C115   1.416       .  A
C114       C1065   1.401   1_455  A
C115        C116   1.406       .  A
C115        N122   1.441       .  S
C116        C117   1.402       .  A
C116        H121   1.084       .  S
C117       C1070   1.415   1_455  A
C118       C1069   1.415       .  A
C118        N119   1.443       .  S
N119        O123   1.263       .  A
N119        O124   1.262       .  A
N122        O125   1.261       .  A
N122        O126   1.263       .  A
C127        C128   1.401       .  A
C127        C132   1.399       .  A
C127        H134   1.080       .  S
C128       C1081   1.416   1_455  A
C129        C130   1.407       .  A
C129       C1080   1.416       .  A
C129        N136   1.441       .  S
C130       C1083   1.404       .  A
C130        H135   1.084       .  S
C131        C132   1.411       .  A
C131       C1082   1.404   1_455  A
C132        N133   1.434       .  S
N133        O137   1.262       .  A
N133        O138   1.262       .  A
N136        O139   1.263       .  A
N136        O140   1.263       .  A
C141        C142   1.408   1_455  A
C141        C146   1.404       .  A
C141        H148   1.083       .  S
C142       C1095   1.420       .  A
C143        C144   1.403       .  A
C143       C1094   1.420       .  A
C143        N150   1.438       .  S
C144       C1097   1.399       .  A
C144        H149   1.084       .  S
C145        C958   1.469       .  S
C145        C146   1.413   1_655  A
C145       C1096   1.399       .  A
C146        N147   1.441       .  S
N147        O152   1.262       .  A
N147        O389   1.263       .  A
N150        O153   1.263       .  A
N150        O154   1.263       .  A
O151        N385   1.263       .  A
C155        C160   1.407       .  A
C155       C1108   1.404       .  A
C155        H162   1.084       .  S
C156        C157   1.413       .  A
C156       C1107   1.404   1_455  A
C157        C158   1.399       .  A
C157        N164   1.435       .  S
C158        C159   1.401       .  A
C158        H163   1.084       .  S
C159       C1112   1.416   1_455  A
C160       C1111   1.416       .  A
C160        N161   1.442       .  S
N161        O165   1.263       .  A
N161        O166   1.263       .  A
N164        O167   1.260       .  A
N164        O168   1.262       .  A
C169        C174   1.402       .  A
C169       C1122   1.400       .  A
C169        H176   1.084       .  S
C170        C171   1.411       .  A
C170       C1121   1.400   1_455  A
C171        C172   1.401       .  A
C171        N178   1.439       .  S
C172        C173   1.409   1_455  A
C172        H177   1.083       .  S
C173        C964   1.492       .  S
C173       C1126   1.421       .  A
C174       C1125   1.421       .  A
C174        N175   1.434       .  S
N175        O179   1.262       .  A
N175        O180   1.261       .  A
N178        O181   1.263       .  A
N178        O182   1.263       .  A
C183        C184   1.409       .  A
C183        C188   1.403       .  A
C183        H190   1.083       .  S
C184        C505   1.490       .  S
C184        C661   1.415       .  A
C185        C186   1.402       .  A
C185        C660   1.415   1_545  A
C185        N192   1.431       .  S
C186        C663   1.402   1_545  A
C186        H191   1.084       .  S
C187        C188   1.414       .  A
C187        C662   1.402       .  A
C188        N189   1.443       .  S
N189        O193   1.263       .  A
N189        O194   1.262       .  A
N192        O195   1.262       .  A
N192        O196   1.262       .  A
C197        C198   1.408       .  A
C197        C202   1.406       .  A
C197        H204   1.084       .  S
C198        C675   1.414       .  A
C199        C200   1.400       .  A
C199        C674   1.414   1_545  A
C199        N206   1.432       .  S
C200        C677   1.399   1_545  A
C200        H205   1.085       .  S
C201        C202   1.415       .  A
C201        C676   1.399       .  A
C202        N203   1.445       .  S
N203        O207   1.263       .  A
N203        O208   1.262       .  A
N206        O209   1.262       .  A
N206        O210   1.262       .  A
C211        C216   1.406       .  A
C211        C688   1.405   1_545  A
C211        H218   1.084       .  S
C212        C213   1.414       .  A
C212        C687   1.405       .  A
C213        C214   1.402       .  A
C213        N220   1.439       .  S
C214        C215   1.401       .  A
C214        H219   1.084       .  S
C215        C499   1.471       .  S
C215        C692   1.417       .  A
C216        C691   1.417   1_545  A
C216        N217   1.443       .  S
N217        O221   1.263       .  A
N217        O222   1.261       .  A
N220        O223   1.263       .  A
N220        O224   1.263       .  A
C225        C230   1.406       .  A
C225        C702   1.403   1_545  A
C225        H232   1.084       .  S
C226        C227   1.410       .  A
C226        C701   1.403       .  A
C227        C228   1.400       .  A
C227        N234   1.436       .  S
C228        C229   1.412       .  A
C228        H233   1.083       .  S
C229        C706   1.421       .  A
C230        C705   1.421   1_545  A
C230        N231   1.435       .  S
N231        O235   1.263       .  A
N231        O236   1.262       .  A
N234        O237   1.261       .  A
N234        O238   1.263       .  A
O239       Zr251   2.431       .  S
O239        C241   1.287       .  A
O240        C717   1.287   1_545  A
C241        O716   1.287       .  A
C241        C467   1.500       .  S
O242       Zr254   2.444       .  S
O242       C1196   1.287   1_455  A
O243        C244   1.285       .  A
C244       O1194   1.287       .  A
C244       C1335   1.469       .  S
O245       Zr254   2.433       .  S
O245        C247   1.287       .  A
O246       Zr277   2.429   1_556  S
O246        C723   1.286   1_545  A
C247        O722   1.286       .  A
C247        C436   1.483       .  S
O248       Zr251   2.440       .  S
O248       C1202   1.289   1_455  A
O249       Zr278   2.418       .  S
O249        C250   1.284       .  A
C250       O1200   1.289       .  A
C250       C1363   1.492       .  S
Zr251       O252   2.433       .  S
Zr251       O253   2.436       .  S
Zr251      O1233   2.367   1_455  S
Zr251       O759   2.371       .  S
O252        H295   0.990       .  S
O253        H294   0.990       .  S
O253        H298   0.990       .  S
Zr254       O255   2.436       .  S
Zr254       O256   2.436       .  S
Zr254       O258   2.369   1_556  S
Zr254       O257   2.370   1_556  S
Zr254       O758   2.374       .  S
Zr254      O1236   2.369   1_455  S
O255        H296   0.990       .  S
O255        H299   0.990       .  S
O256        H289   0.990       .  S
O257       Zr753   2.374       .  S
O258       Zr992   2.375   1_454  S
O258        H285   0.964       .  S
O259       Zr271   2.453       .  S
O259        C261   1.289   1_545  A
O260       Zr278   2.416       .  S
O260        C737   1.284       .  A
C261        O736   1.284       .  A
C261        C929   1.471       .  S
O262       Zr274   2.449       .  S
O262       C1216   1.290       .  A
O263       Zr277   2.418   1_556  S
O263        C264   1.286       .  A
C264       O1214   1.290   1_455  A
C264        C366   1.476       .  S
O265       Zr274   2.455       .  S
O265        C267   1.289   1_545  A
O266        C743   1.285       .  A
C267        O742   1.284       .  A
C267        C898   1.490       .  S
O268       Zr271   2.443       .  S
O268       C1222   1.288       .  A
O269        C270   1.285       .  A
C270       O1220   1.288   1_455  A
C270        C394   1.474       .  S
Zr271       O272   2.436       .  S
Zr271       O273   2.434       .  S
Zr271       O279   2.374       .  S
Zr271       O280   2.371       .  S
Zr271      O1235   2.379       .  S
Zr271       O757   2.374   1_545  S
O272        H292   0.990       .  S
O272        H297   0.990       .  S
O273        H293   0.990       .  S
Zr274       O275   2.434       .  S
Zr274       O276   2.434       .  S
Zr274       O760   2.374   1_545  S
Zr274      O1234   2.378       .  S
O275        H291   0.990       .  S
O276        H290   0.990       .  S
O276        H300   0.990       .  S
Zr277       O733   2.373   1_545  S
Zr277       O994   2.383   1_455  S
Zr277       O282   2.387   1_554  S
Zr278       O972   2.375       .  S
Zr278       O755   2.386       .  S
Zr278       O281   2.379       .  S
O279       Zr754   2.386   1_545  S
O279        H287   0.966       .  S
O280       Zr991   2.383       .  S
O281      Zr1203   2.367       .  S
O281       Zr747   2.374       .  S
O282       Zr730   2.374   1_545  S
O282      Zr1226   2.378   1_455  S
O282        H286   0.966       .  S
O283       Zr727   2.371   1_545  S
O283      Zr1223   2.379   1_455  S
O283        H288   0.966       .  S
O284      Zr1206   2.369       .  S
O284       Zr750   2.374       .  S
C301        C408   1.477       .  S
C301        C302   1.404       .  A
C301        C306   1.403       .  A
C302        C303   1.401       .  A
C302        H307   1.084       .  S
C303        C352   1.475       .  S
C303        C304   1.400       .  A
C304        C305   1.402       .  A
C304        H308   1.084       .  S
C305        C397   1.477       .  S
C305        C306   1.403       .  A
C306        H309   1.084   1_455  S
C310        C380   1.495   1_455  S
C310        C311   1.408       .  A
C310        C315   1.410   1_455  A
C311        C312   1.400       .  A
C311        H316   1.083       .  S
C312        C355   1.474       .  S
C312        C313   1.399       .  A
C313        C314   1.400       .  A
C313        H317   1.084       .  S
C314        C369   1.478       .  S
C314        C315   1.404   1_455  A
C315        H318   1.083       .  S
C319        C450   1.486       .  S
C319        C320   1.405       .  A
C319        C324   1.406       .  A
C320        C321   1.403       .  A
C320        H325   1.084       .  S
C321        C464   1.482       .  S
C321        C322   1.403       .  A
C322        C323   1.403       .  A
C322        H326   1.084       .  S
C323        C338   1.481       .  S
C323        C324   1.402       .  A
C324        H327   1.083       .  S
C328        C425   1.475       .  S
C328        C329   1.402       .  A
C328        C333   1.403       .  A
C329        C330   1.400       .  A
C329        H334   1.084       .  S
C330        C439   1.471       .  S
C330        C331   1.401       .  A
C331        C332   1.402       .  A
C331        H335   1.084       .  S
C332        C341   1.480       .  S
C332        C333   1.404       .  A
C333        H336   1.084       .  S
C337        C338   1.402       .  A
C337        C342   1.403       .  A
C337        H820   1.084       .  S
C338        C339   1.411       .  A
C339        C340   1.402       .  A
C339        N346   1.431       .  S
C340        C341   1.403       .  A
C340        H345   1.084       .  S
C341        C342   1.416       .  A
C342        N819   1.437       .  S
N343        C818   1.437       .  S
N343        O347   1.262       .  A
N343        O348   1.261       .  A
H344        C813   1.084       .  S
N346        O349   1.261       .  A
N346        O350   1.262       .  A
C351       C1304   1.401       .  A
C351        C356   1.403       .  A
C351        H358   1.084       .  S
C352       C1303   1.401   1_455  A
C352        C353   1.416       .  A
C353        C354   1.406       .  A
C353        N360   1.441       .  S
C354        C355   1.402       .  A
C354        H359   1.084       .  S
C355       C1308   1.415   1_455  A
C356       C1307   1.415       .  A
C356        N357   1.443       .  S
N357        O361   1.263       .  A
N357        O362   1.262       .  A
N360        O363   1.261       .  A
N360        O364   1.263       .  A
C365        C366   1.401       .  A
C365        C370   1.399       .  A
C365        H372   1.080       .  S
C366       C1319   1.416   1_455  A
C367       C1318   1.416       .  A
C367        C368   1.407       .  A
C367        N374   1.441       .  S
C368       C1321   1.404       .  A
C368        H373   1.084       .  S
C369       C1320   1.404   1_455  A
C369        C370   1.411       .  A
C370        N371   1.434       .  S
N371        O375   1.262       .  A
N371        O376   1.262       .  A
N374        O377   1.263       .  A
N374        O378   1.263       .  A
C379        C380   1.408   1_455  A
C379        C384   1.404       .  A
C379        H386   1.083       .  S
C380       C1333   1.420       .  A
C381       C1332   1.420       .  A
C381        C382   1.403       .  A
C381        N388   1.438       .  S
C382       C1335   1.399       .  A
C382        H387   1.084       .  S
C383       C1196   1.469       .  S
C383       C1334   1.399       .  A
C383        C384   1.413   1_655  A
C384        N385   1.442       .  S
N385        O390   1.262       .  A
N388        O391   1.263       .  A
N388        O392   1.263       .  A
C393       C1346   1.404       .  A
C393        C398   1.407       .  A
C393        H400   1.084       .  S
C394       C1345   1.404   1_455  A
C394        C395   1.413       .  A
C395        C396   1.399       .  A
C395        N402   1.435       .  S
C396        C397   1.401       .  A
C396        H401   1.084       .  S
C397       C1350   1.416   1_455  A
C398       C1349   1.416       .  A
C398        N399   1.442       .  S
N399        O403   1.263       .  A
N399        O404   1.263       .  A
N402        O405   1.260       .  A
N402        O406   1.262       .  A
C407       C1360   1.400       .  A
C407        C412   1.403       .  A
C407        H414   1.084       .  S
C408       C1359   1.400   1_455  A
C408        C409   1.411       .  A
C409        C410   1.401       .  A
C409        N416   1.439       .  S
C410        C411   1.409   1_455  A
C410        H415   1.083       .  S
C411       C1202   1.492       .  S
C411       C1364   1.421       .  A
C412       C1363   1.421       .  A
C412        N413   1.434       .  S
N413        O417   1.262       .  A
N413        O418   1.261       .  A
N416        O419   1.263       .  A
N416        O420   1.263       .  A
C421        C422   1.409       .  A
C421        C426   1.403       .  A
C421        H428   1.083       .  S
C422        C743   1.490       .  S
C422        C899   1.415       .  A
C423        C898   1.415   1_545  A
C423        C424   1.402       .  A
C423        N430   1.431       .  S
C424        C901   1.402   1_545  A
C424        H429   1.084       .  S
C425        C900   1.402       .  A
C425        C426   1.414       .  A
C426        N427   1.443       .  S
N427        O431   1.263       .  A
N427        O432   1.262       .  A
N430        O433   1.262       .  A
N430        O434   1.262       .  A
C435        C436   1.408       .  A
C435        C440   1.406       .  A
C435        H442   1.084       .  S
C436        C913   1.414       .  A
C437        C912   1.414   1_545  A
C437        C438   1.400       .  A
C437        N444   1.432       .  S
C438        C915   1.399   1_545  A
C438        H443   1.085       .  S
C439        C914   1.399       .  A
C439        C440   1.415       .  A
C440        N441   1.445       .  S
N441        O445   1.263       .  A
N441        O446   1.262       .  A
N444        O447   1.262       .  A
N444        O448   1.262       .  A
C449        C926   1.405   1_545  A
C449        C454   1.406       .  A
C449        H456   1.084       .  S
C450        C925   1.405       .  A
C450        C451   1.415       .  A
C451        C452   1.402       .  A
C451        N458   1.439       .  S
C452        C453   1.401       .  A
C452        H457   1.084       .  S
C453        C737   1.471       .  S
C453        C930   1.417       .  A
C454        C929   1.417   1_545  A
C454        N455   1.443       .  S
N455        O459   1.263       .  A
N455        O460   1.261       .  A
N458        O461   1.263       .  A
N458        O462   1.263       .  A
C463        C940   1.403   1_545  A
C463        C468   1.406       .  A
C463        H470   1.084       .  S
C464        C939   1.403       .  A
C464        C465   1.410       .  A
C465        C466   1.400       .  A
C465        N472   1.436       .  S
C466        C467   1.412       .  A
C466        H471   1.083       .  S
C467        C944   1.421       .  A
C468        C943   1.421   1_545  A
C468        N469   1.435       .  S
N469        O473   1.263       .  A
N469        O474   1.262       .  A
N472        O475   1.261       .  A
N472        O476   1.263       .  A
O477       Zr489   2.431       .  S
O477        C479   1.287       .  A
O478       Zr753   2.438       .  S
C479        C705   1.500       .  S
O480       Zr492   2.444       .  S
O480       C1434   1.287   1_455  A
O481       Zr754   2.423       .  S
O481        C482   1.285       .  A
C482       O1432   1.287       .  A
C482       C1573   1.469       .  S
O483       Zr492   2.433       .  S
O483        C485   1.287       .  A
O484       Zr515   2.429       .  S
C485        C674   1.483       .  S
O486       Zr489   2.440       .  S
O486       C1440   1.289   1_455  A
O487       Zr516   2.418   1_554  S
O487        C488   1.284       .  A
C488       O1438   1.289       .  A
C488       C1601   1.492       .  S
Zr489       O490   2.433       .  S
Zr489       O491   2.436       .  S
Zr489       O733   2.368       .  S
Zr489       O734   2.365       .  S
Zr489      O1471   2.367   1_455  S
O490        H533   0.990       .  S
O491        H532   0.990       .  S
O491        H536   0.990       .  S
Zr492       O493   2.436       .  S
Zr492       O494   2.436       .  S
Zr492       O496   2.369       .  S
Zr492       O495   2.370       .  S
Zr492      O1474   2.369   1_455  S
O493        H534   0.990       .  S
O493        H537   0.990       .  S
O494        H527   0.990       .  S
O495       Zr727   2.368       .  S
O496       Zr727   2.365       .  S
O496      Zr1706   2.375   1_455  S
O496        H523   0.964       .  S
O497       Zr509   2.453       .  S
O497        C499   1.289       .  A
O498       Zr516   2.416   1_554  S
O500       Zr512   2.449       .  S
O500       C1454   1.290       .  A
O501       Zr515   2.418       .  S
O501        C502   1.286       .  A
C502       O1452   1.290   1_455  A
C502        C604   1.476       .  S
O503       Zr512   2.455       .  S
O503        C505   1.289       .  A
O504       Zr754   2.406       .  S
O506       Zr509   2.443       .  S
O506       C1460   1.288       .  A
O507       Zr753   2.420       .  S
O507        C508   1.285       .  A
C508       O1458   1.288   1_455  A
C508        C632   1.474       .  S
Zr509       O510   2.436       .  S
Zr509       O511   2.434       .  S
Zr509       O517   2.374   1_554  S
Zr509       O518   2.370       .  S
Zr509      O1473   2.379       .  S
O510        H530   0.990       .  S
O510        H535   0.990       .  S
O511        H531   0.990       .  S
Zr512       O513   2.434       .  S
Zr512       O514   2.434       .  S
Zr512       O756   2.371       .  S
Zr512       O755   2.372       .  S
Zr512      O1472   2.378       .  S
O513        H529   0.990       .  S
O514        H528   0.990       .  S
O514        H538   0.990       .  S
Zr515       O716   2.438       .  S
Zr515       O745   2.420       .  S
Zr515      O1708   2.383   1_455  S
Zr515       O520   2.387       .  S
Zr515       O759   2.386       .  S
Zr516       O719   2.423       .  S
Zr516       O742   2.406       .  S
Zr516      O1686   2.375   1_556  S
Zr516       O519   2.379   1_556  S
Zr516       O760   2.379       .  S
O517       Zr750   2.372       .  S
O517        H525   0.966       .  S
O518       Zr750   2.371   1_554  S
O518      Zr1705   2.382       .  S
O519      Zr1441   2.367       .  S
O520      Zr1464   2.378   1_455  S
O520        H524   0.966       .  S
O521      Zr1461   2.379   1_455  S
O521       Zr753   2.386       .  S
O521        H526   0.966       .  S
O522      Zr1444   2.369       .  S
O522       Zr754   2.379       .  S
C539        C646   1.477       .  S
C539        C540   1.404       .  A
C539        C544   1.403       .  A
C540        C541   1.401       .  A
C540        H545   1.084       .  S
C541        C590   1.475       .  S
C541        C542   1.400       .  A
C542        C543   1.403       .  A
C542        H546   1.084       .  S
C543        C635   1.477       .  S
C543        C544   1.403       .  A
C544        H547   1.084   1_455  S
C548        C618   1.495   1_455  S
C548        C549   1.408       .  A
C548        C553   1.410   1_455  A
C549        C550   1.400       .  A
C549        H554   1.083       .  S
C550        C593   1.474       .  S
C550        C551   1.399       .  A
C551        C552   1.400       .  A
C551        H555   1.084       .  S
C552        C607   1.478       .  S
C552        C553   1.404   1_455  A
C553        H556   1.083       .  S
C557        C688   1.486       .  S
C557        C558   1.405       .  A
C557        C562   1.406       .  A
C558        C559   1.403       .  A
C558        H563   1.084       .  S
C559        C702   1.482       .  S
C559        C560   1.403       .  A
C560        C561   1.403       .  A
C560        H564   1.084       .  S
C561        C576   1.481       .  S
C561        C562   1.402       .  A
C562        H565   1.083       .  S
C566        C663   1.475       .  S
C566        C567   1.402       .  A
C566        C571   1.403       .  A
C567        C568   1.400       .  A
C567        H572   1.084       .  S
C568        C677   1.471       .  S
C568        C569   1.401       .  A
C569        C570   1.402       .  A
C569        H573   1.084       .  S
C570        C579   1.480       .  S
C570        C571   1.404       .  A
C571        H574   1.084       .  S
C575        C576   1.402   1_545  A
C575        C580   1.403       .  A
C576        C577   1.412       .  A
C577        C578   1.402       .  A
C577        N584   1.431       .  S
C578        C579   1.403       .  A
C578        H583   1.084       .  S
C579        C580   1.416   1_565  A
N581        O585   1.262       .  A
N581        O586   1.261       .  A
N584        O587   1.261       .  A
N584        O588   1.262       .  A
C589       C1542   1.401       .  A
C589        C594   1.403       .  A
C589        H596   1.084       .  S
C590       C1541   1.401   1_455  A
C590        C591   1.416       .  A
C591        C592   1.406       .  A
C591        N598   1.441       .  S
C592        C593   1.402       .  A
C592        H597   1.084       .  S
C593       C1546   1.415   1_455  A
C594       C1545   1.415       .  A
C594        N595   1.443       .  S
N595        O599   1.263       .  A
N595        O600   1.262       .  A
N598        O601   1.261       .  A
N598        O602   1.263       .  A
C603        C604   1.401       .  A
C603        C608   1.399       .  A
C603        H610   1.080       .  S
C604       C1557   1.416   1_455  A
C605       C1556   1.416       .  A
C605        C606   1.407       .  A
C605        N612   1.441       .  S
C606       C1559   1.404       .  A
C606        H611   1.084       .  S
C607       C1558   1.404   1_455  A
C607        C608   1.411       .  A
C608        N609   1.434       .  S
N609        O613   1.262       .  A
N609        O614   1.262       .  A
N612        O615   1.263       .  A
N612        O616   1.263       .  A
C617        C618   1.408   1_455  A
C617        C622   1.404       .  A
C617        H624   1.083       .  S
C618       C1571   1.420       .  A
C619       C1570   1.420       .  A
C619        C620   1.403       .  A
C619        N626   1.438       .  S
C620       C1573   1.399       .  A
C620        H625   1.084       .  S
C621       C1434   1.469       .  S
C621       C1572   1.399       .  A
C621        C622   1.413   1_655  A
C622        N623   1.441       .  S
N623        O865   1.263       .  A
N623        O628   1.262       .  A
N626        O629   1.263       .  A
N626        O630   1.263       .  A
O627        N861   1.263       .  A
C631       C1584   1.404       .  A
C631        C636   1.407       .  A
C631        H638   1.084       .  S
C632       C1583   1.404   1_455  A
C632        C633   1.413       .  A
C633        C634   1.399       .  A
C633        N640   1.435       .  S
C634        C635   1.401       .  A
C634        H639   1.084       .  S
C635       C1588   1.416   1_455  A
C636       C1587   1.416       .  A
C636        N637   1.442       .  S
N637        O641   1.263       .  A
N637        O642   1.263       .  A
N640        O643   1.260       .  A
N640        O644   1.262       .  A
C645       C1598   1.400       .  A
C645        C650   1.403       .  A
C645        H652   1.084       .  S
C646       C1597   1.400   1_455  A
C646        C647   1.411       .  A
C647        C648   1.401       .  A
C647        N654   1.439       .  S
C648        C649   1.409   1_455  A
C648        H653   1.083       .  S
C649       C1440   1.492       .  S
C649       C1602   1.421       .  A
C650       C1601   1.421       .  A
C650        N651   1.434       .  S
N651        O655   1.262       .  A
N651        O656   1.261       .  A
N654        O657   1.263       .  A
N654        O658   1.263       .  A
C659        C660   1.409       .  A
C659        C664   1.403       .  A
C659        H666   1.083       .  S
C661        C662   1.402       .  A
C661        N668   1.431       .  S
C662        H667   1.084       .  S
C663        C664   1.414       .  A
C664        N665   1.443       .  S
N665        O669   1.263       .  A
N665        O670   1.262       .  A
N668        O671   1.262       .  A
N668        O672   1.262       .  A
C673        C674   1.408       .  A
C673        C678   1.406       .  A
C673        H680   1.084       .  S
C675        C676   1.400       .  A
C675        N682   1.432       .  S
C676        H681   1.085       .  S
C677        C678   1.415       .  A
C678        N679   1.445       .  S
N679        O683   1.263       .  A
N679        O684   1.262       .  A
N682        O685   1.262       .  A
N682        O686   1.262       .  A
C687        C692   1.406       .  A
C687        H694   1.084       .  S
C688        C689   1.414       .  A
C689        C690   1.402       .  A
C689        N696   1.439       .  S
C690        C691   1.401       .  A
C690        H695   1.084       .  S
C692        N693   1.443       .  S
N693        O697   1.263       .  A
N693        O698   1.261       .  A
N696        O699   1.263       .  A
N696        O700   1.263       .  A
C701        C706   1.406       .  A
C701        H708   1.084       .  S
C702        C703   1.410       .  A
C703        C704   1.400       .  A
C703        N710   1.436       .  S
C704        C705   1.412       .  A
C704        H709   1.083       .  S
C706        N707   1.435       .  S
N707        O711   1.263       .  A
N707        O712   1.262       .  A
N710        O713   1.261       .  A
N710        O714   1.263       .  A
O715       Zr727   2.431       .  S
O715        C717   1.287       .  A
C717        C943   1.500       .  S
O718       Zr730   2.444       .  S
O718       C1672   1.287   1_455  A
O719        C720   1.285       .  A
C720       O1670   1.287       .  A
C720       C1811   1.469       .  S
O721       Zr730   2.433       .  S
O721        C723   1.287       .  A
O722       Zr753   2.429   1_556  S
C723        C912   1.483       .  S
O724       Zr727   2.440       .  S
O724       C1678   1.289   1_455  A
O725       Zr754   2.418       .  S
O725        C726   1.284       .  A
C726       O1676   1.289       .  A
C726       C1839   1.492       .  S
Zr727       O728   2.433       .  S
Zr727       O729   2.436       .  S
Zr727      O1709   2.367   1_455  S
O728        H771   0.990       .  S
O729        H770   0.990       .  S
O729        H774   0.990       .  S
Zr730       O731   2.436       .  S
Zr730       O732   2.436       .  S
Zr730       O734   2.369   1_556  S
Zr730       O733   2.370   1_556  S
Zr730      O1712   2.369   1_455  S
O731        H772   0.990       .  S
O731        H775   0.990       .  S
O732        H765   0.990       .  S
O734      Zr1468   2.375   1_454  S
O734        H761   0.964       .  S
O735       Zr747   2.453       .  S
O735        C737   1.289       .  A
O736       Zr754   2.416       .  S
O738       Zr750   2.449       .  S
O738       C1692   1.290       .  A
O739       Zr753   2.418   1_556  S
O739        C740   1.286       .  A
C740       O1690   1.290   1_455  A
C740        C842   1.476       .  S
O741       Zr750   2.455       .  S
O741        C743   1.290       .  A
O744       Zr747   2.443       .  S
O744       C1698   1.288       .  A
O745        C746   1.285       .  A
C746       O1696   1.288   1_455  A
C746        C870   1.474       .  S
Zr747       O748   2.436       .  S
Zr747       O749   2.434       .  S
Zr747       O755   2.374       .  S
Zr747       O756   2.371       .  S
Zr747      O1711   2.379       .  S
O748        H768   0.990       .  S
O748        H773   0.990       .  S
O749        H769   0.990       .  S
Zr750       O751   2.434       .  S
Zr750       O752   2.434       .  S
Zr750      O1710   2.378       .  S
O751        H767   0.990       .  S
O752        H766   0.990       .  S
O752        H776   0.990       .  S
Zr753      O1470   2.382   1_455  S
Zr753       O758   2.387   1_554  S
Zr754      O1448   2.375       .  S
Zr754       O757   2.379       .  S
O755        H763   0.966       .  S
O756      Zr1467   2.383       .  S
O757      Zr1679   2.367       .  S
O758      Zr1702   2.378   1_455  S
O758        H762   0.966       .  S
O759      Zr1699   2.379   1_455  S
O759        H764   0.966       .  S
O760      Zr1682   2.369       .  S
C777        C884   1.477       .  S
C777        C778   1.404       .  A
C777        C782   1.403       .  A
C778        C779   1.401       .  A
C778        H783   1.084       .  S
C779        C828   1.475       .  S
C779        C780   1.400       .  A
C780        C781   1.402       .  A
C780        H784   1.084       .  S
C781        C873   1.477       .  S
C781        C782   1.403       .  A
C782        H785   1.084   1_455  S
C786        C856   1.495   1_455  S
C786        C787   1.408       .  A
C786        C791   1.410   1_455  A
C787        C788   1.400       .  A
C787        H792   1.083       .  S
C788        C831   1.474       .  S
C788        C789   1.399       .  A
C789        C790   1.400       .  A
C789        H793   1.084       .  S
C790        C845   1.478       .  S
C790        C791   1.404   1_455  A
C791        H794   1.083       .  S
C795        C926   1.486       .  S
C795        C796   1.405       .  A
C795        C800   1.406       .  A
C796        C797   1.403       .  A
C796        H801   1.084       .  S
C797        C940   1.482       .  S
C797        C798   1.403       .  A
C798        C799   1.403       .  A
C798        H802   1.084       .  S
C799        C814   1.481       .  S
C799        C800   1.402       .  A
C800        H803   1.083       .  S
C804        C901   1.475       .  S
C804        C805   1.402       .  A
C804        C809   1.403       .  A
C805        C806   1.400       .  A
C805        H810   1.084       .  S
C806        C915   1.471       .  S
C806        C807   1.401       .  A
C807        C808   1.402       .  A
C807        H811   1.084       .  S
C808        C817   1.480       .  S
C808        C809   1.404       .  A
C809        H812   1.084       .  S
C813        C814   1.402   1_545  A
C813        C818   1.403       .  A
C814        C815   1.412       .  A
C815        C816   1.402       .  A
C815        N822   1.431       .  S
C816        C817   1.403       .  A
C816        H821   1.084       .  S
C817        C818   1.416   1_565  A
N819        O823   1.262       .  A
N819        O824   1.261       .  A
N822        O825   1.261       .  A
N822        O826   1.262       .  A
C827       C1780   1.401       .  A
C827        C832   1.403       .  A
C827        H834   1.084       .  S
C828       C1779   1.401   1_455  A
C828        C829   1.416       .  A
C829        C830   1.406       .  A
C829        N836   1.441       .  S
C830        C831   1.402       .  A
C830        H835   1.084       .  S
C831       C1784   1.415   1_455  A
C832       C1783   1.415       .  A
C832        N833   1.443       .  S
N833        O837   1.263       .  A
N833        O838   1.262       .  A
N836        O839   1.261       .  A
N836        O840   1.263       .  A
C841        C842   1.401       .  A
C841        C846   1.399       .  A
C841        H848   1.080       .  S
C842       C1795   1.416   1_455  A
C843       C1794   1.416       .  A
C843        C844   1.407       .  A
C843        N850   1.441       .  S
C844       C1797   1.404       .  A
C844        H849   1.084       .  S
C845       C1796   1.404   1_455  A
C845        C846   1.411       .  A
C846        N847   1.434       .  S
N847        O851   1.262       .  A
N847        O852   1.262       .  A
N850        O853   1.263       .  A
N850        O854   1.263       .  A
C855        C856   1.408   1_455  A
C855        C860   1.405       .  A
C855        H862   1.083       .  S
C856       C1809   1.420       .  A
C857       C1808   1.420       .  A
C857        C858   1.403       .  A
C857        N864   1.438       .  S
C858       C1811   1.399       .  A
C858        H863   1.084       .  S
C859       C1672   1.469       .  S
C859       C1810   1.399       .  A
C859        C860   1.413   1_655  A
C860        N861   1.441       .  S
N861        O866   1.262       .  A
N864        O867   1.263       .  A
N864        O868   1.263       .  A
C869       C1822   1.404       .  A
C869        C874   1.407       .  A
C869        H876   1.084       .  S
C870       C1821   1.404   1_455  A
C870        C871   1.413       .  A
C871        C872   1.399       .  A
C871        N878   1.435       .  S
C872        C873   1.401       .  A
C872        H877   1.084       .  S
C873       C1826   1.416   1_455  A
C874       C1825   1.416       .  A
C874        N875   1.442       .  S
N875        O879   1.263       .  A
N875        O880   1.263       .  A
N878        O881   1.260       .  A
N878        O882   1.262       .  A
C883       C1836   1.400       .  A
C883        C888   1.403       .  A
C883        H890   1.084       .  S
C884       C1835   1.400   1_455  A
C884        C885   1.411       .  A
C885        C886   1.401       .  A
C885        N892   1.439       .  S
C886        C887   1.409   1_455  A
C886        H891   1.083       .  S
C887       C1678   1.492       .  S
C887       C1840   1.421       .  A
C888       C1839   1.421       .  A
C888        N889   1.434       .  S
N889        O893   1.262       .  A
N889        O894   1.261       .  A
N892        O895   1.263       .  A
N892        O896   1.263       .  A
C897        C898   1.409       .  A
C897        C902   1.403       .  A
C897        H904   1.083       .  S
C899        C900   1.402       .  A
C899        N906   1.431       .  S
C900        H905   1.084       .  S
C901        C902   1.414       .  A
C902        N903   1.443       .  S
N903        O907   1.263       .  A
N903        O908   1.262       .  A
N906        O909   1.262       .  A
N906        O910   1.262       .  A
C911        C912   1.408       .  A
C911        C916   1.406       .  A
C911        H918   1.084       .  S
C913        C914   1.399       .  A
C913        N920   1.432       .  S
C914        H919   1.085       .  S
C915        C916   1.415       .  A
C916        N917   1.445       .  S
N917        O921   1.263       .  A
N917        O922   1.262       .  A
N920        O923   1.262       .  A
N920        O924   1.262       .  A
C925        C930   1.406       .  A
C925        H932   1.084       .  S
C926        C927   1.414       .  A
C927        C928   1.402       .  A
C927        N934   1.439       .  S
C928        C929   1.401       .  A
C928        H933   1.084       .  S
C930        N931   1.443       .  S
N931        O935   1.263       .  A
N931        O936   1.261       .  A
N934        O937   1.263       .  A
N934        O938   1.263       .  A
C939        C944   1.406       .  A
C939        H946   1.084       .  S
C940        C941   1.410       .  A
C941        C942   1.400       .  A
C941        N948   1.436       .  S
C942        C943   1.412       .  A
C942        H947   1.083       .  S
C944        N945   1.435       .  S
N945        O949   1.263       .  A
N945        O950   1.262       .  A
N948        O951   1.261       .  A
N948        O952   1.263       .  A
O953       Zr965   2.431       .  S
O953        C955   1.287       .  A
O954      Zr1229   2.438       .  S
O954       C1431   1.287   1_545  A
C955       O1430   1.287       .  A
C955       C1181   1.500       .  S
O956       Zr968   2.444       .  S
O957      Zr1230   2.423       .  S
O957        C958   1.285       .  A
O959       Zr968   2.433       .  S
O959        C961   1.287       .  A
O960       Zr991   2.429       .  S
O960       C1437   1.286   1_545  A
C961       O1436   1.286       .  A
C961       C1150   1.483       .  S
O962       Zr965   2.440       .  S
O963       Zr992   2.418   1_554  S
O963        C964   1.284       .  A
Zr965       O966   2.433       .  S
Zr965       O967   2.436       .  S
Zr965      O1209   2.368       .  S
Zr965      O1210   2.365       .  S
Zr965      O1473   2.371       .  S
O966       H1009   0.990       .  S
O967       H1008   0.990       .  S
O967       H1012   0.990       .  S
Zr968       O969   2.436       .  S
Zr968       O970   2.436       .  S
Zr968       O972   2.369       .  S
Zr968       O971   2.370       .  S
Zr968      O1472   2.374       .  S
O969       H1010   0.990       .  S
O969       H1013   0.990       .  S
O970       H1003   0.990       .  S
O971      Zr1203   2.368       .  S
O971      Zr1467   2.373       .  S
O972      Zr1203   2.365       .  S
O972        H999   0.964       .  S
O973       Zr985   2.453       .  S
O973        C975   1.289   1_545  A
O974       Zr992   2.416   1_554  S
O974       C1451   1.284       .  A
C975       O1450   1.284       .  A
C975       C1643   1.471       .  S
O976       Zr988   2.449       .  S
O977       Zr991   2.418       .  S
O977        C978   1.286       .  A
C978       C1080   1.476       .  S
O979       Zr988   2.455       .  S
O979        C981   1.289   1_545  A
O980      Zr1230   2.406       .  S
O980       C1457   1.284       .  A
C981       O1456   1.284       .  A
C981       C1612   1.490       .  S
O982       Zr985   2.443       .  S
O983      Zr1229   2.420       .  S
O983        C984   1.285       .  A
C984       C1108   1.474       .  S
Zr985       O986   2.436       .  S
Zr985       O987   2.434       .  S
Zr985       O993   2.374   1_554  S
Zr985       O994   2.371       .  S
Zr985      O1471   2.374   1_545  S
O986       H1006   0.990       .  S
O986       H1011   0.990       .  S
O987       H1007   0.990       .  S
Zr988       O989   2.434       .  S
Zr988       O990   2.434       .  S
Zr988      O1232   2.371       .  S
Zr988      O1231   2.372       .  S
Zr988      O1474   2.374   1_545  S
O989       H1005   0.990       .  S
O990       H1004   0.990       .  S
O990       H1014   0.990       .  S
Zr991      O1192   2.438       .  S
Zr991      O1221   2.420       .  S
Zr991      O1447   2.373   1_545  S
Zr991       O996   2.387       .  S
Zr991      O1235   2.386       .  S
Zr992      O1195   2.423       .  S
Zr992      O1218   2.406       .  S
Zr992      O1469   2.385       .  S
Zr992       O995   2.378   1_556  S
Zr992      O1236   2.379       .  S
O993      Zr1226   2.372       .  S
O993      Zr1468   2.386   1_545  S
O993       H1001   0.966       .  S
O994      Zr1226   2.371   1_554  S
O995      Zr1461   2.374       .  S
O996      Zr1444   2.374   1_545  S
O996       H1000   0.966       .  S
O997      Zr1441   2.371   1_545  S
O997      Zr1229   2.386       .  S
O997       H1002   0.966       .  S
O998      Zr1464   2.374       .  S
O998      Zr1230   2.379       .  S
C1015      C1122   1.477       .  S
C1015      C1016   1.404       .  A
C1015      C1020   1.403       .  A
C1016      C1017   1.401       .  A
C1016      H1021   1.084       .  S
C1017      C1066   1.475       .  S
C1017      C1018   1.400       .  A
C1018      C1019   1.402       .  A
C1018      H1022   1.084       .  S
C1019      C1111   1.477       .  S
C1019      C1020   1.403       .  A
C1020      H1023   1.084       .  S
C1024      C1094   1.495       .  S
C1024      C1025   1.408       .  A
C1024      C1029   1.410       .  A
C1025      C1026   1.400       .  A
C1025      H1030   1.083       .  S
C1026      C1069   1.474       .  S
C1026      C1027   1.399       .  A
C1027      C1028   1.400       .  A
C1027      H1031   1.084       .  S
C1028      C1083   1.478       .  S
C1028      C1029   1.404       .  A
C1029      H1032   1.083       .  S
C1033      C1164   1.486       .  S
C1033      C1034   1.405       .  A
C1033      C1038   1.406       .  A
C1034      C1035   1.403       .  A
C1034      H1039   1.084       .  S
C1035      C1178   1.482       .  S
C1035      C1036   1.403       .  A
C1036      C1037   1.403       .  A
C1036      H1040   1.084       .  S
C1037      C1052   1.481       .  S
C1037      C1038   1.402       .  A
C1038      H1041   1.083       .  S
C1042      C1139   1.475       .  S
C1042      C1043   1.402       .  A
C1042      C1047   1.403       .  A
C1043      C1044   1.400       .  A
C1043      H1048   1.084       .  S
C1044      C1153   1.471       .  S
C1044      C1045   1.401       .  A
C1045      C1046   1.402       .  A
C1045      H1049   1.084       .  S
C1046      C1055   1.480       .  S
C1046      C1047   1.404       .  A
C1047      H1050   1.084       .  S
C1051      C1052   1.402       .  A
C1051      C1056   1.403       .  A
C1051      H1534   1.084       .  S
C1052      C1053   1.411       .  A
C1053      C1054   1.402       .  A
C1053      N1060   1.431       .  S
C1054      C1055   1.403       .  A
C1054      H1059   1.084       .  S
C1055      C1056   1.416       .  A
C1056      N1533   1.437       .  S
N1057      C1532   1.437       .  S
N1057      O1061   1.262       .  A
N1057      O1062   1.261       .  A
H1058      C1527   1.084       .  S
N1060      O1063   1.261       .  A
N1060      O1064   1.262       .  A
C1065      C1070   1.403       .  A
C1065      H1072   1.084       .  S
C1066      C1067   1.416       .  A
C1067      C1068   1.406       .  A
C1067      N1074   1.441       .  S
C1068      C1069   1.402       .  A
C1068      H1073   1.084       .  S
C1070      N1071   1.443       .  S
N1071      O1075   1.263       .  A
N1071      O1076   1.262       .  A
N1074      O1077   1.261       .  A
N1074      O1078   1.263       .  A
C1079      C1080   1.401       .  A
C1079      C1084   1.399       .  A
C1079      H1086   1.080       .  S
C1081      C1082   1.407       .  A
C1081      N1088   1.441       .  S
C1082      H1087   1.084       .  S
C1083      C1084   1.411       .  A
C1084      N1085   1.434       .  S
N1085      O1089   1.262       .  A
N1085      O1090   1.262       .  A
N1088      O1091   1.263       .  A
N1088      O1092   1.263       .  A
C1093      C1094   1.408       .  A
C1093      C1098   1.404       .  A
C1093      H1100   1.083       .  S
C1095      C1096   1.403       .  A
C1095      N1102   1.438       .  S
C1096      H1101   1.084       .  S
C1097      C1098   1.413       .  A
C1098      N1099   1.441       .  S
N1099      O1341   1.263       .  A
N1099      O1104   1.262       .  A
N1102      O1105   1.263       .  A
N1102      O1106   1.263       .  A
O1103      N1337   1.263       .  A
C1107      C1112   1.407       .  A
C1107      H1114   1.084       .  S
C1108      C1109   1.413       .  A
C1109      C1110   1.399       .  A
C1109      N1116   1.435       .  S
C1110      C1111   1.401       .  A
C1110      H1115   1.084       .  S
C1112      N1113   1.442       .  S
N1113      O1117   1.263       .  A
N1113      O1118   1.263       .  A
N1116      O1119   1.260       .  A
N1116      O1120   1.262       .  A
C1121      C1126   1.402       .  A
C1121      H1128   1.084       .  S
C1122      C1123   1.411       .  A
C1123      C1124   1.401       .  A
C1123      N1130   1.439       .  S
C1124      C1125   1.409       .  A
C1124      H1129   1.083       .  S
C1126      N1127   1.434       .  S
N1127      O1131   1.262       .  A
N1127      O1132   1.261       .  A
N1130      O1133   1.263       .  A
N1130      O1134   1.263       .  A
C1135      C1136   1.409       .  A
C1135      C1140   1.403       .  A
C1135      H1142   1.083       .  S
C1136      C1457   1.490       .  S
C1136      C1613   1.415       .  A
C1137      C1612   1.415   1_545  A
C1137      C1138   1.402       .  A
C1137      N1144   1.431       .  S
C1138      C1615   1.402   1_545  A
C1138      H1143   1.084       .  S
C1139      C1614   1.402       .  A
C1139      C1140   1.414       .  A
C1140      N1141   1.443       .  S
N1141      O1145   1.263       .  A
N1141      O1146   1.262       .  A
N1144      O1147   1.262       .  A
N1144      O1148   1.262       .  A
C1149      C1150   1.408       .  A
C1149      C1154   1.406       .  A
C1149      H1156   1.084       .  S
C1150      C1627   1.414       .  A
C1151      C1626   1.414   1_545  A
C1151      C1152   1.400       .  A
C1151      N1158   1.432       .  S
C1152      C1629   1.399   1_545  A
C1152      H1157   1.085       .  S
C1153      C1628   1.399       .  A
C1153      C1154   1.415       .  A
C1154      N1155   1.445       .  S
N1155      O1159   1.263       .  A
N1155      O1160   1.262       .  A
N1158      O1161   1.262       .  A
N1158      O1162   1.262       .  A
C1163      C1640   1.405   1_545  A
C1163      C1168   1.406       .  A
C1163      H1170   1.084       .  S
C1164      C1639   1.405       .  A
C1164      C1165   1.414       .  A
C1165      C1166   1.402       .  A
C1165      N1172   1.439       .  S
C1166      C1167   1.401       .  A
C1166      H1171   1.084       .  S
C1167      C1451   1.471       .  S
C1167      C1644   1.417       .  A
C1168      C1643   1.417   1_545  A
C1168      N1169   1.443       .  S
N1169      O1173   1.263       .  A
N1169      O1174   1.261       .  A
N1172      O1175   1.263       .  A
N1172      O1176   1.263       .  A
C1177      C1654   1.403   1_545  A
C1177      C1182   1.406       .  A
C1177      H1184   1.084       .  S
C1178      C1653   1.403       .  A
C1178      C1179   1.410       .  A
C1179      C1180   1.400       .  A
C1179      N1186   1.436       .  S
C1180      C1181   1.412       .  A
C1180      H1185   1.083       .  S
C1181      C1658   1.421       .  A
C1182      C1657   1.421   1_545  A
C1182      N1183   1.435       .  S
N1183      O1187   1.263       .  A
N1183      O1188   1.262       .  A
N1186      O1189   1.261       .  A
N1186      O1190   1.263       .  A
O1191     Zr1203   2.431       .  S
O1191      C1193   1.287       .  A
O1192      C1669   1.287   1_545  A
C1193      O1668   1.287       .  A
C1193      C1419   1.500       .  S
O1194     Zr1206   2.444       .  S
O1195      C1196   1.285       .  A
O1197     Zr1206   2.433       .  S
O1197      C1199   1.287       .  A
O1198     Zr1229   2.429   1_556  S
O1198      C1675   1.286   1_545  A
C1199      O1674   1.286       .  A
C1199      C1388   1.483       .  S
O1200     Zr1203   2.440       .  S
O1201     Zr1230   2.418       .  S
O1201      C1202   1.284       .  A
Zr1203     O1204   2.433       .  S
Zr1203     O1205   2.436       .  S
Zr1203     O1711   2.371       .  S
O1204      H1247   0.990       .  S
O1205      H1246   0.990       .  S
O1205      H1250   0.990       .  S
Zr1206     O1207   2.436       .  S
Zr1206     O1208   2.436       .  S
Zr1206     O1210   2.369   1_556  S
Zr1206     O1209   2.370   1_556  S
Zr1206     O1710   2.374       .  S
O1207      H1248   0.990       .  S
O1207      H1251   0.990       .  S
O1208      H1241   0.990       .  S
O1209     Zr1705   2.374       .  S
O1210      H1237   0.964       .  S
O1211     Zr1223   2.453       .  S
O1211      C1213   1.289   1_545  A
O1212     Zr1230   2.416       .  S
O1212      C1689   1.284       .  A
C1213      O1688   1.284       .  A
C1213      C1881   1.471       .  S
O1214     Zr1226   2.449       .  S
O1215     Zr1229   2.418   1_556  S
O1215      C1216   1.286       .  A
C1216      C1318   1.476       .  S
O1217     Zr1226   2.455       .  S
O1217      C1219   1.289   1_545  A
O1218      C1695   1.285       .  A
C1219      O1694   1.284       .  A
C1219      C1850   1.490       .  S
O1220     Zr1223   2.443       .  S
O1221      C1222   1.285       .  A
C1222      C1346   1.474       .  S
Zr1223     O1224   2.436       .  S
Zr1223     O1225   2.434       .  S
Zr1223     O1231   2.374       .  S
Zr1223     O1232   2.371       .  S
Zr1223     O1709   2.374   1_545  S
O1224      H1244   0.990       .  S
O1224      H1249   0.990       .  S
O1225      H1245   0.990       .  S
Zr1226     O1227   2.434       .  S
Zr1226     O1228   2.434       .  S
Zr1226     O1712   2.374   1_545  S
O1227      H1243   0.990       .  S
O1228      H1242   0.990       .  S
O1228      H1252   0.990       .  S
Zr1229     O1685   2.373   1_545  S
Zr1229     O1234   2.387   1_554  S
Zr1230     O1707   2.386       .  S
Zr1230     O1233   2.379       .  S
O1231     Zr1706   2.386   1_545  S
O1231      H1239   0.966       .  S
O1233     Zr1699   2.374       .  S
O1234     Zr1682   2.374   1_545  S
O1234      H1238   0.966       .  S
O1235     Zr1679   2.371   1_545  S
O1235      H1240   0.966       .  S
O1236     Zr1702   2.374       .  S
C1253      C1360   1.477       .  S
C1253      C1254   1.404       .  A
C1253      C1258   1.403       .  A
C1254      C1255   1.401       .  A
C1254      H1259   1.084       .  S
C1255      C1304   1.475       .  S
C1255      C1256   1.400       .  A
C1256      C1257   1.402       .  A
C1256      H1260   1.084       .  S
C1257      C1349   1.477       .  S
C1257      C1258   1.403       .  A
C1258      H1261   1.084       .  S
C1262      C1332   1.495       .  S
C1262      C1263   1.408       .  A
C1262      C1267   1.410       .  A
C1263      C1264   1.400       .  A
C1263      H1268   1.083       .  S
C1264      C1307   1.474       .  S
C1264      C1265   1.399       .  A
C1265      C1266   1.400       .  A
C1265      H1269   1.084       .  S
C1266      C1321   1.478       .  S
C1266      C1267   1.404       .  A
C1267      H1270   1.083       .  S
C1271      C1402   1.486       .  S
C1271      C1272   1.405       .  A
C1271      C1276   1.406       .  A
C1272      C1273   1.403       .  A
C1272      H1277   1.084       .  S
C1273      C1416   1.482       .  S
C1273      C1274   1.403       .  A
C1274      C1275   1.403       .  A
C1274      H1278   1.084       .  S
C1275      C1290   1.481       .  S
C1275      C1276   1.402       .  A
C1276      H1279   1.083       .  S
C1280      C1377   1.475       .  S
C1280      C1281   1.402       .  A
C1280      C1285   1.403       .  A
C1281      C1282   1.400       .  A
C1281      H1286   1.084       .  S
C1282      C1391   1.471       .  S
C1282      C1283   1.401       .  A
C1283      C1284   1.402       .  A
C1283      H1287   1.084       .  S
C1284      C1293   1.480       .  S
C1284      C1285   1.404       .  A
C1285      H1288   1.084       .  S
C1289      C1290   1.402       .  A
C1289      C1294   1.403       .  A
C1289      H1772   1.084       .  S
C1290      C1291   1.411       .  A
C1291      C1292   1.402       .  A
C1291      N1298   1.431       .  S
C1292      C1293   1.403       .  A
C1292      H1297   1.084       .  S
C1293      C1294   1.416       .  A
C1294      N1771   1.437       .  S
N1295      C1770   1.437       .  S
N1295      O1299   1.262       .  A
N1295      O1300   1.261       .  A
H1296      C1765   1.084       .  S
N1298      O1301   1.261       .  A
N1298      O1302   1.262       .  A
C1303      C1308   1.403       .  A
C1303      H1310   1.084       .  S
C1304      C1305   1.416       .  A
C1305      C1306   1.406       .  A
C1305      N1312   1.441       .  S
C1306      C1307   1.402       .  A
C1306      H1311   1.084       .  S
C1308      N1309   1.443       .  S
N1309      O1313   1.263       .  A
N1309      O1314   1.262       .  A
N1312      O1315   1.261       .  A
N1312      O1316   1.263       .  A
C1317      C1318   1.401       .  A
C1317      C1322   1.399       .  A
C1317      H1324   1.080       .  S
C1319      C1320   1.407       .  A
C1319      N1326   1.441       .  S
C1320      H1325   1.084       .  S
C1321      C1322   1.411       .  A
C1322      N1323   1.434       .  S
N1323      O1327   1.262       .  A
N1323      O1328   1.262       .  A
N1326      O1329   1.263       .  A
N1326      O1330   1.263       .  A
C1331      C1332   1.408       .  A
C1331      C1336   1.404       .  A
C1331      H1338   1.083       .  S
C1333      C1334   1.403       .  A
C1333      N1340   1.438       .  S
C1334      H1339   1.084       .  S
C1335      C1336   1.413       .  A
C1336      N1337   1.442       .  S
N1337      O1342   1.262       .  A
N1340      O1343   1.263       .  A
N1340      O1344   1.263       .  A
C1345      C1350   1.407       .  A
C1345      H1352   1.084       .  S
C1346      C1347   1.413       .  A
C1347      C1348   1.399       .  A
C1347      N1354   1.435       .  S
C1348      C1349   1.401       .  A
C1348      H1353   1.084       .  S
C1350      N1351   1.442       .  S
N1351      O1355   1.263       .  A
N1351      O1356   1.263       .  A
N1354      O1357   1.260       .  A
N1354      O1358   1.262       .  A
C1359      C1364   1.403       .  A
C1359      H1366   1.084       .  S
C1360      C1361   1.411       .  A
C1361      C1362   1.401       .  A
C1361      N1368   1.439       .  S
C1362      C1363   1.409       .  A
C1362      H1367   1.083       .  S
C1364      N1365   1.434       .  S
N1365      O1369   1.262       .  A
N1365      O1370   1.261       .  A
N1368      O1371   1.263       .  A
N1368      O1372   1.263       .  A
C1373      C1374   1.409       .  A
C1373      C1378   1.403       .  A
C1373      H1380   1.083       .  S
C1374      C1695   1.490       .  S
C1374      C1851   1.415       .  A
C1375      C1850   1.415   1_545  A
C1375      C1376   1.402       .  A
C1375      N1382   1.431       .  S
C1376      C1853   1.402   1_545  A
C1376      H1381   1.084       .  S
C1377      C1852   1.402       .  A
C1377      C1378   1.414       .  A
C1378      N1379   1.443       .  S
N1379      O1383   1.263       .  A
N1379      O1384   1.262       .  A
N1382      O1385   1.262       .  A
N1382      O1386   1.262       .  A
C1387      C1388   1.408       .  A
C1387      C1392   1.406       .  A
C1387      H1394   1.084       .  S
C1388      C1865   1.414       .  A
C1389      C1864   1.414   1_545  A
C1389      C1390   1.400       .  A
C1389      N1396   1.432       .  S
C1390      C1867   1.399   1_545  A
C1390      H1395   1.085       .  S
C1391      C1866   1.399       .  A
C1391      C1392   1.415       .  A
C1392      N1393   1.445       .  S
N1393      O1397   1.263       .  A
N1393      O1398   1.262       .  A
N1396      O1399   1.262       .  A
N1396      O1400   1.262       .  A
C1401      C1878   1.405   1_545  A
C1401      C1406   1.406       .  A
C1401      H1408   1.084       .  S
C1402      C1877   1.405       .  A
C1402      C1403   1.415       .  A
C1403      C1404   1.402       .  A
C1403      N1410   1.439       .  S
C1404      C1405   1.401       .  A
C1404      H1409   1.084       .  S
C1405      C1689   1.471       .  S
C1405      C1882   1.417       .  A
C1406      C1881   1.417   1_545  A
C1406      N1407   1.443       .  S
N1407      O1411   1.263       .  A
N1407      O1412   1.261       .  A
N1410      O1413   1.263       .  A
N1410      O1414   1.263       .  A
C1415      C1892   1.403   1_545  A
C1415      C1420   1.406       .  A
C1415      H1422   1.084       .  S
C1416      C1891   1.403       .  A
C1416      C1417   1.410       .  A
C1417      C1418   1.400       .  A
C1417      N1424   1.436       .  S
C1418      C1419   1.412       .  A
C1418      H1423   1.083       .  S
C1419      C1896   1.421       .  A
C1420      C1895   1.421   1_545  A
C1420      N1421   1.435       .  S
N1421      O1425   1.263       .  A
N1421      O1426   1.262       .  A
N1424      O1427   1.261       .  A
N1424      O1428   1.263       .  A
O1429     Zr1441   2.431       .  S
O1429      C1431   1.287       .  A
O1430     Zr1705   2.438       .  S
C1431      C1657   1.500       .  S
O1432     Zr1444   2.444       .  S
O1433     Zr1706   2.423       .  S
O1433      C1434   1.285       .  A
O1435     Zr1444   2.433       .  S
O1435      C1437   1.287       .  A
O1436     Zr1467   2.429       .  S
C1437      C1626   1.483       .  S
O1438     Zr1441   2.440       .  S
O1439     Zr1468   2.418   1_554  S
O1439      C1440   1.284       .  A
Zr1441     O1442   2.433       .  S
Zr1441     O1443   2.436       .  S
Zr1441     O1685   2.368       .  S
Zr1441     O1686   2.365       .  S
O1442      H1485   0.990       .  S
O1443      H1484   0.990       .  S
O1443      H1488   0.990       .  S
Zr1444     O1445   2.436       .  S
Zr1444     O1446   2.436       .  S
Zr1444     O1448   2.369       .  S
Zr1444     O1447   2.370       .  S
O1445      H1486   0.990       .  S
O1445      H1489   0.990       .  S
O1446      H1479   0.990       .  S
O1447     Zr1679   2.368       .  S
O1448     Zr1679   2.365       .  S
O1448      H1475   0.964       .  S
O1449     Zr1461   2.453       .  S
O1449      C1451   1.289       .  A
O1450     Zr1468   2.416   1_554  S
O1452     Zr1464   2.449       .  S
O1453     Zr1467   2.418       .  S
O1453      C1454   1.286       .  A
C1454      C1556   1.476       .  S
O1455     Zr1464   2.455       .  S
O1455      C1457   1.289       .  A
O1456     Zr1706   2.406       .  S
O1458     Zr1461   2.443       .  S
O1459     Zr1705   2.420       .  S
O1459      C1460   1.285       .  A
C1460      C1584   1.474       .  S
Zr1461     O1462   2.436       .  S
Zr1461     O1463   2.434       .  S
Zr1461     O1469   2.374   1_554  S
Zr1461     O1470   2.370       .  S
O1462      H1482   0.990       .  S
O1462      H1487   0.990       .  S
O1463      H1483   0.990       .  S
Zr1464     O1465   2.434       .  S
Zr1464     O1466   2.434       .  S
Zr1464     O1708   2.371       .  S
Zr1464     O1707   2.372       .  S
O1465      H1481   0.990       .  S
O1466      H1480   0.990       .  S
O1466      H1490   0.990       .  S
Zr1467     O1668   2.438       .  S
Zr1467     O1697   2.420       .  S
Zr1467     O1472   2.387       .  S
Zr1467     O1711   2.386       .  S
Zr1468     O1671   2.423       .  S
Zr1468     O1694   2.406       .  S
Zr1468     O1471   2.379   1_556  S
Zr1468     O1712   2.379       .  S
O1469     Zr1702   2.372       .  S
O1469      H1477   0.966       .  S
O1470     Zr1702   2.371   1_554  S
O1472      H1476   0.966       .  S
O1473     Zr1705   2.386       .  S
O1473      H1478   0.966       .  S
O1474     Zr1706   2.379       .  S
C1491      C1598   1.477       .  S
C1491      C1492   1.404       .  A
C1491      C1496   1.403       .  A
C1492      C1493   1.401       .  A
C1492      H1497   1.084       .  S
C1493      C1542   1.475       .  S
C1493      C1494   1.400       .  A
C1494      C1495   1.403       .  A
C1494      H1498   1.084       .  S
C1495      C1587   1.477       .  S
C1495      C1496   1.403       .  A
C1496      H1499   1.084       .  S
C1500      C1570   1.495       .  S
C1500      C1501   1.408       .  A
C1500      C1505   1.410       .  A
C1501      C1502   1.400       .  A
C1501      H1506   1.083       .  S
C1502      C1545   1.474       .  S
C1502      C1503   1.399       .  A
C1503      C1504   1.400       .  A
C1503      H1507   1.084       .  S
C1504      C1559   1.478       .  S
C1504      C1505   1.404       .  A
C1505      H1508   1.083       .  S
C1509      C1640   1.486       .  S
C1509      C1510   1.405       .  A
C1509      C1514   1.406       .  A
C1510      C1511   1.403       .  A
C1510      H1515   1.084       .  S
C1511      C1654   1.482       .  S
C1511      C1512   1.403       .  A
C1512      C1513   1.403       .  A
C1512      H1516   1.084       .  S
C1513      C1528   1.481       .  S
C1513      C1514   1.402       .  A
C1514      H1517   1.083       .  S
C1518      C1615   1.475       .  S
C1518      C1519   1.402       .  A
C1518      C1523   1.403       .  A
C1519      C1520   1.400       .  A
C1519      H1524   1.084       .  S
C1520      C1629   1.471       .  S
C1520      C1521   1.401       .  A
C1521      C1522   1.402       .  A
C1521      H1525   1.084       .  S
C1522      C1531   1.480       .  S
C1522      C1523   1.404       .  A
C1523      H1526   1.084       .  S
C1527      C1528   1.402   1_545  A
C1527      C1532   1.403       .  A
C1528      C1529   1.412       .  A
C1529      C1530   1.402       .  A
C1529      N1536   1.431       .  S
C1530      C1531   1.403       .  A
C1530      H1535   1.084       .  S
C1531      C1532   1.416   1_565  A
N1533      O1537   1.262       .  A
N1533      O1538   1.261       .  A
N1536      O1539   1.261       .  A
N1536      O1540   1.262       .  A
C1541      C1546   1.403       .  A
C1541      H1548   1.084       .  S
C1542      C1543   1.416       .  A
C1543      C1544   1.406       .  A
C1543      N1550   1.441       .  S
C1544      C1545   1.402       .  A
C1544      H1549   1.084       .  S
C1546      N1547   1.443       .  S
N1547      O1551   1.263       .  A
N1547      O1552   1.262       .  A
N1550      O1553   1.261       .  A
N1550      O1554   1.263       .  A
C1555      C1556   1.401       .  A
C1555      C1560   1.399       .  A
C1555      H1562   1.080       .  S
C1557      C1558   1.407       .  A
C1557      N1564   1.441       .  S
C1558      H1563   1.084       .  S
C1559      C1560   1.411       .  A
C1560      N1561   1.434       .  S
N1561      O1565   1.262       .  A
N1561      O1566   1.262       .  A
N1564      O1567   1.263       .  A
N1564      O1568   1.263       .  A
C1569      C1570   1.408       .  A
C1569      C1574   1.404       .  A
C1569      H1576   1.083       .  S
C1571      C1572   1.403       .  A
C1571      N1578   1.438       .  S
C1572      H1577   1.084       .  S
C1573      C1574   1.413       .  A
C1574      N1575   1.441       .  S
N1575      O1817   1.263       .  A
N1575      O1580   1.262       .  A
N1578      O1581   1.263       .  A
N1578      O1582   1.263       .  A
O1579      N1813   1.263       .  A
C1583      C1588   1.407       .  A
C1583      H1590   1.084       .  S
C1584      C1585   1.413       .  A
C1585      C1586   1.399       .  A
C1585      N1592   1.435       .  S
C1586      C1587   1.401       .  A
C1586      H1591   1.084       .  S
C1588      N1589   1.442       .  S
N1589      O1593   1.263       .  A
N1589      O1594   1.263       .  A
N1592      O1595   1.260       .  A
N1592      O1596   1.262       .  A
C1597      C1602   1.403       .  A
C1597      H1604   1.084       .  S
C1598      C1599   1.411       .  A
C1599      C1600   1.401       .  A
C1599      N1606   1.439       .  S
C1600      C1601   1.409       .  A
C1600      H1605   1.083       .  S
C1602      N1603   1.434       .  S
N1603      O1607   1.262       .  A
N1603      O1608   1.261       .  A
N1606      O1609   1.263       .  A
N1606      O1610   1.263       .  A
C1611      C1612   1.409       .  A
C1611      C1616   1.403       .  A
C1611      H1618   1.083       .  S
C1613      C1614   1.402       .  A
C1613      N1620   1.431       .  S
C1614      H1619   1.084       .  S
C1615      C1616   1.414       .  A
C1616      N1617   1.443       .  S
N1617      O1621   1.263       .  A
N1617      O1622   1.262       .  A
N1620      O1623   1.262       .  A
N1620      O1624   1.262       .  A
C1625      C1626   1.408       .  A
C1625      C1630   1.406       .  A
C1625      H1632   1.084       .  S
C1627      C1628   1.400       .  A
C1627      N1634   1.432       .  S
C1628      H1633   1.085       .  S
C1629      C1630   1.415       .  A
C1630      N1631   1.445       .  S
N1631      O1635   1.263       .  A
N1631      O1636   1.262       .  A
N1634      O1637   1.262       .  A
N1634      O1638   1.262       .  A
C1639      C1644   1.406       .  A
C1639      H1646   1.084       .  S
C1640      C1641   1.414       .  A
C1641      C1642   1.402       .  A
C1641      N1648   1.439       .  S
C1642      C1643   1.401       .  A
C1642      H1647   1.084       .  S
C1644      N1645   1.443       .  S
N1645      O1649   1.263       .  A
N1645      O1650   1.261       .  A
N1648      O1651   1.263       .  A
N1648      O1652   1.263       .  A
C1653      C1658   1.406       .  A
C1653      H1660   1.084       .  S
C1654      C1655   1.410       .  A
C1655      C1656   1.400       .  A
C1655      N1662   1.436       .  S
C1656      C1657   1.412       .  A
C1656      H1661   1.083       .  S
C1658      N1659   1.435       .  S
N1659      O1663   1.263       .  A
N1659      O1664   1.262       .  A
N1662      O1665   1.261       .  A
N1662      O1666   1.263       .  A
O1667     Zr1679   2.431       .  S
O1667      C1669   1.287       .  A
C1669      C1895   1.500       .  S
O1670     Zr1682   2.444       .  S
O1671      C1672   1.285       .  A
O1673     Zr1682   2.433       .  S
O1673      C1675   1.287       .  A
O1674     Zr1705   2.429   1_556  S
C1675      C1864   1.483       .  S
O1676     Zr1679   2.440       .  S
O1677     Zr1706   2.418       .  S
O1677      C1678   1.284       .  A
Zr1679     O1680   2.433       .  S
Zr1679     O1681   2.436       .  S
O1680      H1723   0.990       .  S
O1681      H1722   0.990       .  S
O1681      H1726   0.990       .  S
Zr1682     O1683   2.436       .  S
Zr1682     O1684   2.436       .  S
Zr1682     O1686   2.369   1_556  S
Zr1682     O1685   2.370   1_556  S
O1683      H1724   0.990       .  S
O1683      H1727   0.990       .  S
O1684      H1717   0.990       .  S
O1686      H1713   0.964       .  S
O1687     Zr1699   2.453       .  S
O1687      C1689   1.289       .  A
O1688     Zr1706   2.416       .  S
O1690     Zr1702   2.449       .  S
O1691     Zr1705   2.418   1_556  S
O1691      C1692   1.286       .  A
C1692      C1794   1.476       .  S
O1693     Zr1702   2.455       .  S
O1693      C1695   1.290       .  A
O1696     Zr1699   2.443       .  S
O1697      C1698   1.285       .  A
C1698      C1822   1.474       .  S
Zr1699     O1700   2.436       .  S
Zr1699     O1701   2.434       .  S
Zr1699     O1707   2.374       .  S
Zr1699     O1708   2.371       .  S
O1700      H1720   0.990       .  S
O1700      H1725   0.990       .  S
O1701      H1721   0.990       .  S
Zr1702     O1703   2.434       .  S
Zr1702     O1704   2.434       .  S
O1703      H1719   0.990       .  S
O1704      H1718   0.990       .  S
O1704      H1728   0.990       .  S
Zr1705     O1710   2.387   1_554  S
Zr1706     O1709   2.379       .  S
O1707      H1715   0.966       .  S
O1710      H1714   0.966       .  S
O1711      H1716   0.966       .  S
C1729      C1836   1.477       .  S
C1729      C1730   1.404       .  A
C1729      C1734   1.403       .  A
C1730      C1731   1.401       .  A
C1730      H1735   1.084       .  S
C1731      C1780   1.475       .  S
C1731      C1732   1.400       .  A
C1732      C1733   1.402       .  A
C1732      H1736   1.084       .  S
C1733      C1825   1.477       .  S
C1733      C1734   1.403       .  A
C1734      H1737   1.084       .  S
C1738      C1808   1.495       .  S
C1738      C1739   1.408       .  A
C1738      C1743   1.410       .  A
C1739      C1740   1.400       .  A
C1739      H1744   1.083       .  S
C1740      C1783   1.474       .  S
C1740      C1741   1.399       .  A
C1741      C1742   1.400       .  A
C1741      H1745   1.084       .  S
C1742      C1797   1.478       .  S
C1742      C1743   1.404       .  A
C1743      H1746   1.083       .  S
C1747      C1878   1.486       .  S
C1747      C1748   1.405       .  A
C1747      C1752   1.406       .  A
C1748      C1749   1.403       .  A
C1748      H1753   1.084       .  S
C1749      C1892   1.482       .  S
C1749      C1750   1.403       .  A
C1750      C1751   1.403       .  A
C1750      H1754   1.084       .  S
C1751      C1766   1.481       .  S
C1751      C1752   1.402       .  A
C1752      H1755   1.083       .  S
C1756      C1853   1.475       .  S
C1756      C1757   1.402       .  A
C1756      C1761   1.403       .  A
C1757      C1758   1.400       .  A
C1757      H1762   1.084       .  S
C1758      C1867   1.471       .  S
C1758      C1759   1.401       .  A
C1759      C1760   1.402       .  A
C1759      H1763   1.084       .  S
C1760      C1769   1.480       .  S
C1760      C1761   1.404       .  A
C1761      H1764   1.084       .  S
C1765      C1766   1.402   1_545  A
C1765      C1770   1.403       .  A
C1766      C1767   1.412       .  A
C1767      C1768   1.402       .  A
C1767      N1774   1.431       .  S
C1768      C1769   1.403       .  A
C1768      H1773   1.084       .  S
C1769      C1770   1.416   1_565  A
N1771      O1775   1.262       .  A
N1771      O1776   1.261       .  A
N1774      O1777   1.261       .  A
N1774      O1778   1.262       .  A
C1779      C1784   1.403       .  A
C1779      H1786   1.084       .  S
C1780      C1781   1.416       .  A
C1781      C1782   1.406       .  A
C1781      N1788   1.441       .  S
C1782      C1783   1.402       .  A
C1782      H1787   1.084       .  S
C1784      N1785   1.443       .  S
N1785      O1789   1.263       .  A
N1785      O1790   1.262       .  A
N1788      O1791   1.261       .  A
N1788      O1792   1.263       .  A
C1793      C1794   1.401       .  A
C1793      C1798   1.399       .  A
C1793      H1800   1.080       .  S
C1795      C1796   1.407       .  A
C1795      N1802   1.441       .  S
C1796      H1801   1.084       .  S
C1797      C1798   1.411       .  A
C1798      N1799   1.434       .  S
N1799      O1803   1.262       .  A
N1799      O1804   1.262       .  A
N1802      O1805   1.263       .  A
N1802      O1806   1.263       .  A
C1807      C1808   1.408       .  A
C1807      C1812   1.405       .  A
C1807      H1814   1.083       .  S
C1809      C1810   1.403       .  A
C1809      N1816   1.438       .  S
C1810      H1815   1.084       .  S
C1811      C1812   1.413       .  A
C1812      N1813   1.441       .  S
N1813      O1818   1.262       .  A
N1816      O1819   1.263       .  A
N1816      O1820   1.263       .  A
C1821      C1826   1.407       .  A
C1821      H1828   1.084       .  S
C1822      C1823   1.413       .  A
C1823      C1824   1.399       .  A
C1823      N1830   1.435       .  S
C1824      C1825   1.401       .  A
C1824      H1829   1.084       .  S
C1826      N1827   1.442       .  S
N1827      O1831   1.263       .  A
N1827      O1832   1.263       .  A
N1830      O1833   1.260       .  A
N1830      O1834   1.262       .  A
C1835      C1840   1.403       .  A
C1835      H1842   1.084       .  S
C1836      C1837   1.411       .  A
C1837      C1838   1.401       .  A
C1837      N1844   1.439       .  S
C1838      C1839   1.409       .  A
C1838      H1843   1.083       .  S
C1840      N1841   1.434       .  S
N1841      O1845   1.262       .  A
N1841      O1846   1.261       .  A
N1844      O1847   1.263       .  A
N1844      O1848   1.263       .  A
C1849      C1850   1.409       .  A
C1849      C1854   1.403       .  A
C1849      H1856   1.083       .  S
C1851      C1852   1.402       .  A
C1851      N1858   1.431       .  S
C1852      H1857   1.084       .  S
C1853      C1854   1.414       .  A
C1854      N1855   1.443       .  S
N1855      O1859   1.263       .  A
N1855      O1860   1.262       .  A
N1858      O1861   1.262       .  A
N1858      O1862   1.262       .  A
C1863      C1864   1.408       .  A
C1863      C1868   1.406       .  A
C1863      H1870   1.084       .  S
C1865      C1866   1.399       .  A
C1865      N1872   1.432       .  S
C1866      H1871   1.085       .  S
C1867      C1868   1.415       .  A
C1868      N1869   1.445       .  S
N1869      O1873   1.263       .  A
N1869      O1874   1.262       .  A
N1872      O1875   1.262       .  A
N1872      O1876   1.262       .  A
C1877      C1882   1.406       .  A
C1877      H1884   1.084       .  S
C1878      C1879   1.414       .  A
C1879      C1880   1.402       .  A
C1879      N1886   1.439       .  S
C1880      C1881   1.401       .  A
C1880      H1885   1.084       .  S
C1882      N1883   1.443       .  S
N1883      O1887   1.263       .  A
N1883      O1888   1.261       .  A
N1886      O1889   1.263       .  A
N1886      O1890   1.263       .  A
C1891      C1896   1.406       .  A
C1891      H1898   1.084       .  S
C1892      C1893   1.410       .  A
C1893      C1894   1.400       .  A
C1893      N1900   1.436       .  S
C1894      C1895   1.412       .  A
C1894      H1899   1.083       .  S
C1896      N1897   1.435       .  S
N1897      O1901   1.263       .  A
N1897      O1902   1.262       .  A
N1900      O1903   1.261       .  A
N1900      O1904   1.263       .  A
