geometry optimzed in LAMMPS
_audit_creation_date              2020-12-01 
_audit_creation_method            'lammps2cif' 
_symmetry_space_group_name_H-M    'P1' 
_symmetry_Int_Tables_number       1 
_symmetry_cell_setting            triclinic 
loop_ 
_symmetry_equiv_pos_as_xyz 
  x,y,z 
_cell_length_a                    32.62092134 
_cell_length_b                    29.322252068972013 
_cell_length_c                    29.41100466329761 
_cell_angle_alpha                 90.17861363825938 
_cell_angle_beta                  89.86949157308142 
_cell_angle_gamma                 116.52798589722109 
loop_ 
_atom_site_label 
_atom_site_type_symbol 
_atom_site_fract_x 
_atom_site_fract_y 
_atom_site_fract_z 
_atom_site_charge 
Fe1        Fe  0.39653346  0.19887299  0.25054708     1.65800
Fe2        Fe  0.29755671  0.20964004  0.24919104     1.73200
Fe3        Fe  0.29483460  0.09255179  0.25531977     1.54400
O4          O  0.34004062  0.07879254  0.21419034    -0.82600
O5          O  0.26059898  0.17740251  0.30689186    -0.80900
O6          O  0.39811753  0.15380496  0.19708857    -0.85100
O7          O  0.40047154  0.14874646  0.29768111    -0.79900
O8          O  0.25615494  0.08910704  0.19837451    -0.81700
O9          O  0.34540662  0.26797943  0.28864053    -0.84400
C10         C  0.37271249  0.11137626  0.32120360     0.96300
C11         C  0.37663501  0.10580576  0.19245998     1.03800
O12         O  0.32965594  0.16698904  0.25167878    -1.13400
O13         O  0.33114747  0.24546754  0.19075334    -0.75900
O14         O  0.40141938  0.25336815  0.20318865    -0.79300
O15         O  0.32994109  0.08906764  0.31297998    -0.80000
C16         C  0.37356815  0.26478671  0.18158862     0.95200
O17         O  0.40152147  0.24691807  0.30418211    -0.78000
O18         O  0.24494437  0.15754468  0.20989152    -0.83200
C19         C  0.23609267  0.13030236  0.31414522     0.97800
C20         C  0.23427564  0.11493877  0.19066747     1.03800
O21         O  0.24439996  0.09578325  0.29624828    -0.78800
C22         C  0.38165693  0.27510547  0.30984647     1.02100
C23         C  0.05536382  0.02048431  0.10083674     0.85600
C24         C  0.02509712  0.45664129  0.10584137    -0.54600
C25         C  0.48422942  0.44077595  0.08317640     0.08500
C26         C  0.47846675  0.48427196  0.05888271     0.19500
C27         C  0.05930968  0.02613036  0.04980343    -0.55400
C28         C  0.52096621  0.50891096  0.02740479     0.08600
C29         C  0.02545856  0.04620392  0.11557046    -0.54900
C30         C  0.48439672  0.02900513  0.09387394     0.09200
H31         H  0.03103806  0.43189834  0.12941466     0.13700
H32         H  0.44496547  0.47156871  0.04153653    -0.00500
H33         H  0.09289711  0.04070725  0.03441791     0.14000
H34         H  0.03386306  0.07238479  0.14415928     0.13800
C35         C  0.05757829  0.04091179  0.40224424     0.85600
C36         C  0.02213716  0.06051388  0.39127043    -0.54600
C37         C  0.48042441  0.03447341  0.41232231     0.08500
C38         C  0.47956015  0.49122599  0.44352320     0.19500
C39         C  0.05949232  0.04300885  0.45342608    -0.55400
C40         C  0.52116477  0.51502878  0.47663076     0.08600
C41         C  0.03391195  0.48525138  0.38969239    -0.54900
C42         C  0.49185143  0.45906309  0.40903821     0.09200
H43         H  0.02816227  0.09184730  0.36867599     0.13700
H44         H  0.44622201  0.46964032  0.46081969    -0.00500
H45         H  0.09160854  0.06695881  0.46989694     0.14000
H46         H  0.04632717  0.46895199  0.36290468     0.13800
C47         C  0.43264983  0.02315556  0.15724531    -0.10000
C48         C  0.44845138  0.04105819  0.11335233     0.06100
C49         C  0.43694876  0.07749961  0.09371724    -0.03800
C50         C  0.41180032  0.09721006  0.11902296    -0.08300
C51         C  0.39702422  0.07999555  0.16349301     0.05300
C52         C  0.40668675  0.04158962  0.18200191    -0.03300
Br53       Br  0.39055576  0.01744704  0.24319659    -0.03000
H54         H  0.94294660  0.99679235  0.17351706     0.09200
H55         H  0.40489674  0.12697903  0.10449772     0.07200
Br56       Br  0.45824431  0.10415858  0.03421080    -0.03400
C57         C  0.17415206  0.04209268  0.14711054    -0.10000
C58         C  0.19261934  0.09329037  0.16130283     0.06100
C59         C  0.16838646  0.12142658  0.15005457    -0.03800
C60         C  0.12448272  0.09660952  0.13164099    -0.08300
C61         C  0.10321294  0.04377698  0.12262857     0.05300
C62         C  0.13105518  0.01807476  0.12600409    -0.03300
Br63       Br  0.11585382  0.44277694  0.10918888    -0.03000
H64         H  0.19339980  0.02050241  0.15213130     0.09200
H65         H  0.10753746  0.11979354  0.12300224     0.07200
Br66       Br  0.19329349  0.19438643  0.15563974    -0.03600
C67         C  0.40985667  0.38951474  0.12015447    -0.10000
C68         C  0.44593112  0.39049992  0.09369152     0.06100
C69         C  0.45077242  0.34544502  0.08837690    -0.03800
C70         C  0.42429607  0.30278166  0.11494307    -0.08300
C71         C  0.39232001  0.30430427  0.14622243     0.05300
C72         C  0.38368499  0.34735065  0.14717710    -0.03300
Br73       Br  0.34267931  0.35474962  0.19022753    -0.03000
H74         H  0.40489079  0.42337209  0.12336306     0.09200
H75         H  0.43027799  0.26933717  0.11283775     0.07200
Br76       Br  0.49403170  0.34152871  0.04623243    -0.03400
C77         C  0.37456571  0.03869632  0.36367134    -0.10000
C78         C  0.39221812  0.09158616  0.35728136     0.06100
C79         C  0.43250549  0.12401296  0.38074755    -0.03800
C80         C  0.45716870  0.10338500  0.40453456    -0.08300
C81         C  0.44362326  0.05070344  0.40451391     0.05300
C82         C  0.39980492  0.01797597  0.38712146    -0.03300
Br83       Br  0.37438411  0.44781020  0.39655019    -0.03000
H84         H  0.34285046  0.01312735  0.34721966     0.09200
H85         H  0.98962495  0.12915569  0.41965711     0.07200
Br86       Br  0.95783927  0.19697385  0.37935670    -0.03400
C87         C  0.11832707  0.10931467  0.35175347    -0.10000
C88         C  0.10578684  0.06778259  0.38171141     0.06100
C89         C  0.13948148  0.05112610  0.39252668    -0.03800
C90         C  0.18268050  0.07402253  0.37215564    -0.08300
C91         C  0.19405506  0.11403406  0.34136144     0.05300
C92         C  0.16169312  0.13219348  0.33169023    -0.03300
Br93       Br  0.17257045  0.18453407  0.28751603    -0.03000
H94         H  0.09475724  0.12402048  0.34223003     0.09200
H95         H  0.20726077  0.05957513  0.37954102     0.07200
Br96       Br  0.12936477  0.99641940  0.43408754    -0.03400
C97         C  0.42051407  0.36828340  0.31649383    -0.10000
C98         C  0.40419248  0.32115497  0.33832202     0.06100
C99         C  0.41255616  0.31964476  0.38518855    -0.03800
C100        C  0.43943841  0.36509541  0.40883704    -0.08300
C101        C  0.45808086  0.41209320  0.38609970     0.05300
C102        C  0.44729214  0.41337703  0.33965170    -0.03300
Br103      Br  0.46777916  0.47551904  0.30551758    -0.03000
H104        H  0.41371518  0.36991230  0.28061872     0.09200
H105        H  0.44682000  0.36360067  0.44454318     0.07200
Br106      Br  0.38647237  0.25680677  0.41818609    -0.03400
Fe107      Fe  0.39653353  0.19887296  0.75054704     1.65800
Fe108      Fe  0.29755682  0.20964014  0.74919107     1.73200
Fe109      Fe  0.29483469  0.09255189  0.75531976     1.54400
O110        O  0.34004058  0.07879250  0.71419026    -0.82600
O111        O  0.26059899  0.17740264  0.80689192    -0.80900
O112        O  0.39811756  0.15380485  0.69708856    -0.85100
O113        O  0.40047163  0.14874654  0.79768116    -0.79900
O114        O  0.25615514  0.08910720  0.69837444    -0.81700
O115        O  0.34540679  0.26797958  0.78864050    -0.84400
C116        C  0.37271255  0.11137634  0.82120365     0.96300
C117        C  0.37663498  0.10580567  0.69245993     1.03800
O118        O  0.32965605  0.16698912  0.75167888    -1.13400
O119        O  0.33114757  0.24546751  0.69075333    -0.75900
O120        O  0.40141946  0.25336804  0.70318856    -0.79300
O121        O  0.32994116  0.08906769  0.81297998    -0.80000
C122        C  0.37356824  0.26478666  0.68158860     0.95200
O123        O  0.40152156  0.24691807  0.80418206    -0.78000
O124        O  0.24494448  0.15754477  0.70989152    -0.83200
C125        C  0.23609269  0.13030245  0.81414523     0.97800
C126        C  0.23427581  0.11493890  0.69066740     1.03800
O127        O  0.24440008  0.09578341  0.79624827    -0.78800
C128        C  0.38165707  0.27510553  0.80984644     1.02100
C129        C  0.05536386  0.02048445  0.60083672     0.85600
C130        C  0.02509708  0.45664118  0.60584128    -0.54600
C131        C  0.48422949  0.44077587  0.58317636     0.08500
C132        C  0.47846675  0.48427184  0.55888272     0.19500
C133        C  0.05930974  0.02613056  0.54980340    -0.55400
C134        C  0.52096619  0.50891089  0.52740477     0.08600
C135        C  0.02545848  0.04620395  0.61557045    -0.54900
C136        C  0.48439665  0.02900497  0.59387403     0.09200
H137        H  0.03103804  0.43189821  0.62941449     0.13700
H138        H  0.44496546  0.47156854  0.54153655    -0.00500
H139        H  0.09289711  0.04070750  0.53441793     0.14000
H140        H  0.03386288  0.07238483  0.64415924     0.13800
C141        C  0.05757834  0.04091184  0.90224434     0.85600
C142        C  0.02213716  0.06051390  0.89127055    -0.54600
C143        C  0.48042441  0.03447336  0.91232232     0.08500
C144        C  0.47956015  0.49122598  0.94352325     0.19500
C145        C  0.05949230  0.04300884  0.95342615    -0.55400
C146        C  0.52116478  0.51502888  0.97663081     0.08600
C147        C  0.03391192  0.48525125  0.88969238    -0.54900
C148        C  0.49185145  0.45906307  0.90903830     0.09200
H149        H  0.02816226  0.09184741  0.86867624     0.13700
H150        H  0.44622203  0.46964020  0.96081976    -0.00500
H151        H  0.09160854  0.06695890  0.96989709     0.14000
H152        H  0.04632716  0.46895185  0.86290472     0.13800
C153        C  0.43264980  0.02315553  0.65724532    -0.10000
C154        C  0.44845133  0.04105810  0.61335232     0.06100
C155        C  0.43694883  0.07749964  0.59371721    -0.03800
C156        C  0.41180046  0.09721014  0.61902300    -0.08300
C157        C  0.39702421  0.07999549  0.66349297     0.05300
C158        C  0.40668670  0.04158956  0.68200188    -0.03300
Br159      Br  0.39055551  0.01744687  0.74319651    -0.03000
H160        H  0.94294634  0.99679207  0.67351695     0.09200
H161        H  0.40489696  0.12697923  0.60449785     0.07200
Br162      Br  0.45824450  0.10415876  0.53421077    -0.03400
C163        C  0.17415221  0.04209279  0.64711045    -0.10000
C164        C  0.19261948  0.09329047  0.66130278     0.06100
C165        C  0.16838646  0.12142656  0.65005472    -0.03800
C166        C  0.12448271  0.09660953  0.63164111    -0.08300
C167        C  0.10321301  0.04377705  0.62262855     0.05300
C168        C  0.13105530  0.01807487  0.62600401    -0.03300
Br169      Br  0.11585399  0.44277712  0.60918872    -0.03000
H170        H  0.19339996  0.02050253  0.65213119     0.09200
H171        H  0.10753743  0.11979350  0.62300247     0.07200
Br172      Br  0.19329329  0.19438636  0.65563997    -0.03600
C173        C  0.40985676  0.38951467  0.62015442    -0.10000
C174        C  0.44593121  0.39049983  0.59369151     0.06100
C175        C  0.45077255  0.34544494  0.58837700    -0.03800
C176        C  0.42429618  0.30278162  0.61494317    -0.08300
C177        C  0.39232013  0.30430424  0.64622246     0.05300
C178        C  0.38368511  0.34735062  0.64717710    -0.03300
Br179      Br  0.34267935  0.35474950  0.69022744    -0.03000
H180        H  0.40489087  0.42337203  0.62336297     0.09200
H181        H  0.43027809  0.26933707  0.61283790     0.07200
Br182      Br  0.49403180  0.34152856  0.54623261    -0.03400
C183        C  0.37456568  0.03869632  0.86367139    -0.10000
C184        C  0.39221814  0.09158619  0.85728143     0.06100
C185        C  0.43250553  0.12401291  0.88074759    -0.03800
C186        C  0.45716873  0.10338492  0.90453453    -0.08300
C187        C  0.44362327  0.05070336  0.90451385     0.05300
C188        C  0.39980493  0.01797590  0.88712138    -0.03300
Br189      Br  0.37438399  0.44781036  0.89655039    -0.03000
H190        H  0.34285039  0.01312740  0.84721976     0.09200
H191        H  0.98962487  0.12915552  0.91965730     0.07200
Br192      Br  0.95783935  0.19697378  0.87935691    -0.03400
C193        C  0.11832708  0.10931467  0.85175359    -0.10000
C194        C  0.10578691  0.06778267  0.88171161     0.06100
C195        C  0.13948160  0.05112623  0.89252696    -0.03800
C196        C  0.18268058  0.07402266  0.87215582    -0.08300
C197        C  0.19405504  0.11403402  0.84136143     0.05300
C198        C  0.16169307  0.13219343  0.83169026    -0.03300
Br199      Br  0.17257022  0.18453388  0.78751595    -0.03000
H200        H  0.09475719  0.12402034  0.84223010     0.09200
H201        H  0.20726096  0.05957534  0.87954125     0.07200
Br202      Br  0.12936484  0.99641936  0.93408770    -0.03400
C203        C  0.42051422  0.36828346  0.81649378    -0.10000
C204        C  0.40419265  0.32115502  0.83832199     0.06100
C205        C  0.41255623  0.31964478  0.88518853    -0.03800
C206        C  0.43943830  0.36509547  0.90883706    -0.08300
C207        C  0.45808083  0.41209327  0.88609970     0.05300
C208        C  0.44729225  0.41337713  0.83965165    -0.03300
Br209      Br  0.46777935  0.47551919  0.80551751    -0.03000
H210        H  0.41371533  0.36991227  0.78061865     0.09200
H211        H  0.44681980  0.36360074  0.94454322     0.07200
Br212      Br  0.38647247  0.25680670  0.91818596    -0.03400
Fe213      Fe  0.39816105  0.69827487  0.25017601     1.65800
Fe214      Fe  0.29844824  0.70757317  0.24839106     1.73200
Fe215      Fe  0.29727771  0.59137512  0.25583650     1.54400
O216        O  0.34356787  0.57794705  0.21586414    -0.82600
O217        O  0.26139077  0.67523428  0.30596667    -0.80900
O218        O  0.40033023  0.65310143  0.19692693    -0.85100
O219        O  0.40256743  0.64854646  0.29756566    -0.79900
O220        O  0.25901150  0.58671969  0.19843723    -0.81700
O221        O  0.34565198  0.76609000  0.28815257    -0.84400
C222        C  0.37490791  0.61209477  0.32205986     0.96300
C223        C  0.37991969  0.60485731  0.19368664     1.03800
O224        O  0.33129522  0.66575557  0.25128101    -1.13400
O225        O  0.33220595  0.74418525  0.19017831    -0.75900
O226        O  0.40272937  0.75304083  0.20289566    -0.79300
O227        O  0.33208017  0.58972580  0.31423922    -0.80000
C228        C  0.37480293  0.76468129  0.18160498     0.95200
O229        O  0.40232953  0.74590558  0.30376789    -0.78000
O230        O  0.24636315  0.65447441  0.20896308    -0.83200
C231        C  0.23696071  0.62815392  0.31318058     0.97800
C232        C  0.23630720  0.61158313  0.19043556     1.03800
O233        O  0.24576908  0.59383336  0.29566608    -0.78800
C234        C  0.38191877  0.77350808  0.30950058     1.02100
C235        C  0.05704592  0.51386493  0.10138327     0.85600
C236        C  0.02375145  0.96372787  0.10863632    -0.54600
C237        C  0.48275254  0.94573342  0.08597336     0.08500
C238        C  0.47641342  0.98697260  0.05830264     0.19500
C239        C  0.06129194  0.52354580  0.05070614    -0.55400
C240        C  0.51881807  0.00990619  0.02643071     0.08600
C241        C  0.02723753  0.53851727  0.11903222    -0.54900
C242        C  0.48652318  0.52361594  0.09722655     0.09200
H243        H  0.03121519  0.94057225  0.13281754     0.13700
H244        H  0.44279765  0.97268122  0.04087857    -0.00500
H245        H  0.09493828  0.53914928  0.03537059     0.14000
H246        H  0.03635401  0.56364153  0.14845171     0.13800
C247        C  0.05907730  0.54139794  0.40308294     0.85600
C248        C  0.02433663  0.56233850  0.39326508    -0.54600
C249        C  0.48268701  0.53675052  0.41458784     0.08500
C250        C  0.47784566  0.98974142  0.44208704     0.19500
C251        C  0.06159690  0.54263897  0.45431449    -0.55400
C252        C  0.51907648  0.01478124  0.47552039     0.08600
C253        C  0.03353431  0.98447788  0.38952598    -0.54900
C254        C  0.49128811  0.95778027  0.40844905     0.09200
H255        H  0.03070259  0.59399528  0.37095388     0.13700
H256        H  0.44437801  0.96780287  0.45910717    -0.00500
H257        H  0.09411606  0.56530772  0.47062912     0.14000
H258        H  0.04669870  0.96834709  0.36327016     0.13800
C259        C  0.43327072  0.51867029  0.15925562    -0.10000
C260        C  0.45174102  0.53792899  0.11637484     0.06100
C261        C  0.44381403  0.57728435  0.09748878    -0.03800
C262        C  0.41890589  0.59778298  0.12218174    -0.08300
C263        C  0.40091126  0.57881494  0.16545835     0.05300
C264        C  0.40751406  0.53798878  0.18341789    -0.03300
Br265      Br  0.38711541  0.51099083  0.24319480    -0.03000
H266        H  0.94098895  0.49014178  0.17520143     0.09200
H267        H  0.41460162  0.62945694  0.10808488     0.07200
Br268      Br  0.46999904  0.60694529  0.04007691    -0.03400
C269        C  0.17500716  0.53584052  0.15133733    -0.10000
C270        C  0.19433006  0.58820828  0.16169381     0.06100
C271        C  0.17056951  0.61588118  0.14762987    -0.03800
C272        C  0.12688022  0.59025707  0.12897327    -0.08300
C273        C  0.10492605  0.53684681  0.12316961     0.05300
C274        C  0.13174981  0.51049378  0.13072742    -0.03300
Br275      Br  0.11570486  0.95301596  0.09838361    -0.03000
H276        H  0.19368896  0.51422322  0.15918799     0.09200
H277        H  0.11008409  0.61296887  0.11819043     0.07200
Br278      Br  0.19555884  0.68901032  0.15040815    -0.03600
C279        C  0.40918924  0.89160882  0.12385300    -0.10000
C280        C  0.44569081  0.89463854  0.09684050     0.06100
C281        C  0.45209064  0.85067472  0.09051404    -0.03800
C282        C  0.42655162  0.80691504  0.11628102    -0.08300
C283        C  0.39354681  0.80594940  0.14754398     0.05300
C284        C  0.38345101  0.84802614  0.14960745    -0.03300
Br285      Br  0.34014396  0.85173516  0.19199833    -0.03000
H286        H  0.40311356  0.92466608  0.12802053     0.09200
H287        H  0.43374126  0.77435710  0.11323874     0.07200
Br288      Br  0.49592923  0.84964005  0.04751695    -0.03400
C289        C  0.37647858  0.54069574  0.36675166    -0.10000
C290        C  0.39452553  0.59333758  0.35881205     0.06100
C291        C  0.43515468  0.62626442  0.38149117    -0.03800
C292        C  0.45992550  0.60607104  0.40572574    -0.08300
C293        C  0.44603396  0.55330561  0.40693172     0.05300
C294        C  0.40171469  0.52038664  0.39072583    -0.03300
Br295      Br  0.37335673  0.94528170  0.39078397    -0.03000
H296        H  0.34439144  0.51484089  0.35108840     0.09200
H297        H  0.99265902  0.63209801  0.42016221     0.07200
Br298      Br  0.96060885  0.69920166  0.37841959    -0.03400
C299        C  0.11994885  0.60916214  0.35218067    -0.10000
C300        C  0.10702292  0.56732843  0.38184994     0.06100
C301        C  0.13993407  0.54913650  0.39138355    -0.03800
C302        C  0.18287340  0.57122611  0.37045485    -0.08300
C303        C  0.19474535  0.61180051  0.34019767     0.05300
C304        C  0.16300589  0.63111061  0.33140056    -0.03300
Br305      Br  0.17420248  0.68384568  0.28752073    -0.03000
H306        H  0.09686583  0.62481104  0.34342591     0.09200
H307        H  0.20689649  0.55580800  0.37710168     0.07200
Br308      Br  0.12899795  0.49325490  0.43180641    -0.03400
C309        C  0.42132915  0.86644327  0.31562203    -0.10000
C310        C  0.40415515  0.81955617  0.33788008     0.06100
C311        C  0.41175412  0.81828117  0.38494156    -0.03800
C312        C  0.43866815  0.86383389  0.40844552    -0.08300
C313        C  0.45811822  0.91061453  0.38532268     0.05300
C314        C  0.44812517  0.91159736  0.33859075    -0.03300
Br315      Br  0.46916020  0.97334185  0.30377242    -0.03000
H316        H  0.41510099  0.86781264  0.27956783     0.09200
H317        H  0.44536732  0.86258795  0.44436550     0.07200
Br318      Br  0.38465994  0.75566957  0.41827689    -0.03400
Fe319      Fe  0.39816108  0.69827481  0.75017596     1.65800
Fe320      Fe  0.29844826  0.70757307  0.74839116     1.73200
Fe321      Fe  0.29727777  0.59137509  0.75583656     1.54400
O322        O  0.34356792  0.57794697  0.71586423    -0.82600
O323        O  0.26139089  0.67523418  0.80596685    -0.80900
O324        O  0.40033020  0.65310131  0.69692688    -0.85100
O325        O  0.40256750  0.64854653  0.79756564    -0.79900
O326        O  0.25901148  0.58671962  0.69843740    -0.81700
O327        O  0.34565196  0.76608981  0.78815264    -0.84400
C328        C  0.37490800  0.61209484  0.82205980     0.96300
C329        C  0.37991966  0.60485720  0.69368662     1.03800
O330        O  0.33129528  0.66575552  0.75128102    -1.13400
O331        O  0.33220592  0.74418513  0.69017833    -0.75900
O332        O  0.40272935  0.75304069  0.70289558    -0.79300
O333        O  0.33208026  0.58972584  0.81423918    -0.80000
C334        C  0.37480290  0.76468116  0.68160493     0.95200
O335        O  0.40232962  0.74590554  0.80376784    -0.78000
O336        O  0.24636319  0.65447438  0.70896320    -0.83200
C337        C  0.23696076  0.62815382  0.81318066     0.97800
C338        C  0.23630719  0.61158309  0.69043573     1.03800
O339        O  0.24576911  0.59383327  0.79566612    -0.78800
C340        C  0.38191880  0.77350797  0.80950055     1.02100
C341        C  0.05704583  0.51386487  0.60138331     0.85600
C342        C  0.02375162  0.96372801  0.60863631    -0.54600
C343        C  0.48275256  0.94573333  0.58597335     0.08500
C344        C  0.47641338  0.98697250  0.55830269     0.19500
C345        C  0.06129185  0.52354595  0.55070623    -0.55400
C346        C  0.51881800  0.00990616  0.52643077     0.08600
C347        C  0.02723741  0.53851711  0.61903237    -0.54900
C348        C  0.48652320  0.52361583  0.59722661     0.09200
H349        H  0.03121547  0.94057247  0.63281751     0.13700
H350        H  0.44279760  0.97268106  0.54087865    -0.00500
H351        H  0.09493815  0.53914955  0.53537071     0.14000
H352        H  0.03635389  0.56364138  0.64845178     0.13800
C353        C  0.05907724  0.54139783  0.90308288     0.85600
C354        C  0.02433655  0.56233839  0.89326506    -0.54600
C355        C  0.48268692  0.53675045  0.91458786     0.08500
C356        C  0.47784568  0.98974143  0.94208706     0.19500
C357        C  0.06159690  0.54263885  0.95431442    -0.55400
C358        C  0.51907655  0.01478131  0.97552036     0.08600
C359        C  0.03353438  0.98447797  0.88952598    -0.54900
C360        C  0.49128806  0.95778022  0.90844901     0.09200
H361        H  0.03070252  0.59399519  0.87095396     0.13700
H362        H  0.44437810  0.96780293  0.95910731    -0.00500
H363        H  0.09411605  0.56530755  0.97062902     0.14000
H364        H  0.04669884  0.96834728  0.86327008     0.13800
C365        C  0.43327084  0.51867027  0.65925577    -0.10000
C366        C  0.45174109  0.53792890  0.61637493     0.06100
C367        C  0.44381412  0.57728423  0.59748883    -0.03800
C368        C  0.41890589  0.59778280  0.62218171    -0.08300
C369        C  0.40091125  0.57881481  0.66545837     0.05300
C370        C  0.40751421  0.53798880  0.68341805    -0.03300
Br371      Br  0.38711548  0.51099076  0.74319497    -0.03000
H372        H  0.94098895  0.49014170  0.67520163     0.09200
H373        H  0.41460153  0.62945665  0.60808476     0.07200
Br374      Br  0.46999907  0.60694510  0.54007686    -0.03400
C375        C  0.17500719  0.53584058  0.65133726    -0.10000
C376        C  0.19433000  0.58820826  0.66169396     0.06100
C377        C  0.17056938  0.61588112  0.64763006    -0.03800
C378        C  0.12688008  0.59025701  0.62897347    -0.08300
C379        C  0.10492597  0.53684678  0.62316967     0.05300
C380        C  0.13174984  0.51049385  0.63072733    -0.03300
Br381      Br  0.11570505  0.95301612  0.59838346    -0.03000
H382        H  0.19368904  0.51422330  0.65918774     0.09200
H383        H  0.11008391  0.61296881  0.61819071     0.07200
Br384      Br  0.19555866  0.68901020  0.65040808    -0.03600
C385        C  0.40918919  0.89160873  0.62385286    -0.10000
C386        C  0.44569081  0.89463849  0.59684045     0.06100
C387        C  0.45209066  0.85067468  0.59051404    -0.03800
C388        C  0.42655166  0.80691502  0.61628102    -0.08300
C389        C  0.39354680  0.80594932  0.64754392     0.05300
C390        C  0.38345098  0.84802605  0.64960734    -0.03300
Br391      Br  0.34014398  0.85173503  0.69199824    -0.03000
H392        H  0.40311347  0.92466601  0.62802036     0.09200
H393        H  0.43374134  0.77435711  0.61323880     0.07200
Br394      Br  0.49592933  0.84963994  0.54751712    -0.03400
C395        C  0.37647856  0.54069586  0.86675159    -0.10000
C396        C  0.39452559  0.59333767  0.85881193     0.06100
C397        C  0.43515476  0.62626451  0.88149103    -0.03800
C398        C  0.45992546  0.60607107  0.90572573    -0.08300
C399        C  0.44603387  0.55330563  0.90693176     0.05300
C400        C  0.40171461  0.52038673  0.89072583    -0.03300
Br401      Br  0.37335678  0.94528161  0.89078384    -0.03000
H402        H  0.34439136  0.51484099  0.85108833     0.09200
H403        H  0.99265903  0.63209791  0.92016226     0.07200
Br404      Br  0.96060902  0.69920182  0.87841978    -0.03400
C405        C  0.11994890  0.60916226  0.85218074    -0.10000
C406        C  0.10702290  0.56732838  0.88184988     0.06100
C407        C  0.13993404  0.54913648  0.89138347    -0.03800
C408        C  0.18287344  0.57122614  0.87045494    -0.08300
C409        C  0.19474536  0.61180047  0.84019768     0.05300
C410        C  0.16300598  0.63111068  0.83140058    -0.03300
Br411      Br  0.17420267  0.68384581  0.78752069    -0.03000
H412        H  0.09686598  0.62481125  0.84342609     0.09200
H413        H  0.20689652  0.55580817  0.87710193     0.07200
Br414      Br  0.12899810  0.49325502  0.93180635    -0.03400
C415        C  0.42132896  0.86644314  0.81562195    -0.10000
C416        C  0.40415510  0.81955605  0.83787999     0.06100
C417        C  0.41175412  0.81828104  0.88494145    -0.03800
C418        C  0.43866813  0.86383378  0.90844539    -0.08300
C419        C  0.45811808  0.91061446  0.88532261     0.05300
C420        C  0.44812496  0.91159726  0.83859066    -0.03300
Br421      Br  0.46915997  0.97334171  0.80377231    -0.03000
H422        H  0.41510079  0.86781247  0.77956773     0.09200
H423        H  0.44536735  0.86258781  0.94436537     0.07200
Br424      Br  0.38465971  0.75566943  0.91827677    -0.03400
Fe425      Fe  0.89653335  0.19887279  0.25054706     1.65800
Fe426      Fe  0.79755666  0.20963996  0.24919104     1.73200
Fe427      Fe  0.79483453  0.09255167  0.25531984     1.54400
O428        O  0.84004052  0.07879233  0.21419040    -0.82600
O429        O  0.76059895  0.17740250  0.30689187    -0.80900
O430        O  0.89811738  0.15380474  0.19708859    -0.85100
O431        O  0.90047148  0.14874626  0.29768106    -0.79900
O432        O  0.75615491  0.08910693  0.19837456    -0.81700
O433        O  0.84540659  0.26797938  0.28864051    -0.84400
C434        C  0.87271242  0.11137615  0.32120364     0.96300
C435        C  0.87663488  0.10580557  0.19245997     1.03800
O436        O  0.82965586  0.16698891  0.25167881    -1.13400
O437        O  0.83114742  0.24546751  0.19075335    -0.75900
O438        O  0.90141926  0.25336789  0.20318859    -0.79300
O439        O  0.82994101  0.08906758  0.31298010    -0.80000
C440        C  0.87356809  0.26478659  0.18158861     0.95200
O441        O  0.90152140  0.24691795  0.30418208    -0.78000
O442        O  0.74494427  0.15754454  0.20989155    -0.83200
C443        C  0.73609263  0.13030236  0.31414525     0.97800
C444        C  0.73427558  0.11493863  0.19066750     1.03800
O445        O  0.74439993  0.09578324  0.29624834    -0.78800
C446        C  0.88165688  0.27510539  0.30984645     1.02100
C447        C  0.55536382  0.02048429  0.10083671     0.85600
C448        C  0.52509711  0.45664131  0.10584138    -0.54600
C449        C  0.98422942  0.44077592  0.08317643     0.08500
C450        C  0.97846672  0.48427187  0.05888269     0.19500
C451        C  0.55930970  0.02613034  0.04980341    -0.55400
C452        C  0.02096616  0.50891078  0.02740474     0.08600
C453        C  0.52545856  0.04620391  0.11557045    -0.54900
C454        C  0.98439673  0.02900515  0.09387394     0.09200
H455        H  0.53103804  0.43189833  0.12941464     0.13700
H456        H  0.94496546  0.47156860  0.04153653    -0.00500
H457        H  0.59289713  0.04070728  0.03441790     0.14000
H458        H  0.53386304  0.07238479  0.14415927     0.13800
C459        C  0.55757823  0.04091176  0.40224431     0.85600
C460        C  0.52213709  0.06051382  0.39127051    -0.54600
C461        C  0.98042450  0.03447351  0.41232226     0.08500
C462        C  0.97956006  0.49122595  0.44352320     0.19500
C463        C  0.55949222  0.04300875  0.45342615    -0.55400
C464        C  0.02116466  0.51502877  0.47663080     0.08600
C465        C  0.53391197  0.48525139  0.38969233    -0.54900
C466        C  0.99185139  0.45906305  0.40903822     0.09200
H467        H  0.52816220  0.09184728  0.36867609     0.13700
H468        H  0.94622194  0.46964026  0.46081967    -0.00500
H469        H  0.59160840  0.06695875  0.46989704     0.14000
H470        H  0.54632716  0.46895199  0.36290461     0.13800
C471        C  0.93265005  0.02315577  0.15724538    -0.10000
C472        C  0.94845141  0.04105822  0.11335231     0.06100
C473        C  0.93694866  0.07749950  0.09371710    -0.03800
C474        C  0.91180027  0.09720999  0.11902289    -0.08300
C475        C  0.89702416  0.07999544  0.16349297     0.05300
C476        C  0.90668683  0.04158966  0.18200192    -0.03300
Br477      Br  0.89055575  0.01744703  0.24319658    -0.03000
H478        H  0.44294621  0.99679200  0.17351689     0.09200
H479        H  0.90489668  0.12697895  0.10449770     0.07200
Br480      Br  0.95824424  0.10415850  0.03421059    -0.03400
C481        C  0.67415197  0.04209251  0.14711057    -0.10000
C482        C  0.69261928  0.09329021  0.16130283     0.06100
C483        C  0.66838640  0.12142640  0.15005455    -0.03800
C484        C  0.62448270  0.09660941  0.13164092    -0.08300
C485        C  0.60321293  0.04377692  0.12262849     0.05300
C486        C  0.63105511  0.01807465  0.12600409    -0.03300
Br487      Br  0.61585395  0.44277725  0.10918886    -0.03000
H488        H  0.69339965  0.02050223  0.15213136     0.09200
H489        H  0.60753743  0.11979348  0.12300219     0.07200
Br490      Br  0.69329337  0.19438618  0.15563975    -0.03600
C491        C  0.90985666  0.38951472  0.12015452    -0.10000
C492        C  0.94593110  0.39049991  0.09369155     0.06100
C493        C  0.95077240  0.34544502  0.08837690    -0.03800
C494        C  0.92429605  0.30278164  0.11494306    -0.08300
C495        C  0.89232002  0.30430423  0.14622245     0.05300
C496        C  0.88368496  0.34735058  0.14717712    -0.03300
Br497      Br  0.84267915  0.35474930  0.19022752    -0.03000
H498        H  0.90489079  0.42337208  0.12336313     0.09200
H499        H  0.93027793  0.26933713  0.11283770     0.07200
Br500      Br  0.99403168  0.34152872  0.04623243    -0.03400
C501        C  0.87456573  0.03869626  0.36367139    -0.10000
C502        C  0.89221807  0.09158609  0.35728140     0.06100
C503        C  0.93250548  0.12401294  0.38074750    -0.03800
C504        C  0.95716878  0.10338506  0.40453443    -0.08300
C505        C  0.94362335  0.05070350  0.40451382     0.05300
C506        C  0.89980503  0.01797597  0.38712142    -0.03300
Br507      Br  0.87438408  0.44781020  0.39655018    -0.03000
H508        H  0.84285042  0.01312724  0.34721978     0.09200
H509        H  0.48962486  0.12915561  0.41965733     0.07200
Br510      Br  0.45783931  0.19697386  0.37935671    -0.03400
C511        C  0.61832703  0.10931463  0.35175351    -0.10000
C512        C  0.60578682  0.06778260  0.38171152     0.06100
C513        C  0.63948147  0.05112611  0.39252683    -0.03800
C514        C  0.68268046  0.07402252  0.37215572    -0.08300
C515        C  0.69405501  0.11403403  0.34136148     0.05300
C516        C  0.66169307  0.13219345  0.33169026    -0.03300
Br517      Br  0.67257043  0.18453406  0.28751604    -0.03000
H518        H  0.59475717  0.12402039  0.34223006     0.09200
H519        H  0.70726071  0.05957506  0.37954104     0.07200
Br520      Br  0.62936462  0.99641912  0.43408750    -0.03400
C521        C  0.92051402  0.36828333  0.31649383    -0.10000
C522        C  0.90419244  0.32115490  0.33832202     0.06100
C523        C  0.91255612  0.31964470  0.38518855    -0.03800
C524        C  0.93943836  0.36509535  0.40883704    -0.08300
C525        C  0.95808084  0.41209314  0.38609969     0.05300
C526        C  0.94729211  0.41337698  0.33965170    -0.03300
Br527      Br  0.96777913  0.47551901  0.30551760    -0.03000
H528        H  0.91371511  0.36991220  0.28061872     0.09200
H529        H  0.94681993  0.36360057  0.44454319     0.07200
Br530      Br  0.88647234  0.25680673  0.41818610    -0.03400
Fe531      Fe  0.89653349  0.19887293  0.75054703     1.65800
Fe532      Fe  0.79755672  0.20963997  0.74919107     1.73200
Fe533      Fe  0.79483464  0.09255179  0.75531977     1.54400
O534        O  0.84004056  0.07879249  0.71419027    -0.82600
O535        O  0.76059891  0.17740241  0.80689191    -0.80900
O536        O  0.89811754  0.15380483  0.69708855    -0.85100
O537        O  0.90047162  0.14874654  0.79768116    -0.79900
O538        O  0.75615501  0.08910695  0.69837449    -0.81700
O539        O  0.84540669  0.26797944  0.78864050    -0.84400
C540        C  0.87271253  0.11137633  0.82120366     0.96300
C541        C  0.87663496  0.10580564  0.69245994     1.03800
O542        O  0.82965599  0.16698903  0.75167886    -1.13400
O543        O  0.83114743  0.24546742  0.69075334    -0.75900
O544        O  0.90141932  0.25336795  0.70318853    -0.79300
O545        O  0.82994115  0.08906769  0.81297999    -0.80000
C546        C  0.87356808  0.26478654  0.68158856     0.95200
O547        O  0.90152150  0.24691800  0.80418205    -0.78000
O548        O  0.74494441  0.15754455  0.70989150    -0.83200
C549        C  0.73609260  0.13030226  0.81414522     0.97800
C550        C  0.73427568  0.11493864  0.69066746     1.03800
O551        O  0.74439997  0.09578319  0.79624828    -0.78800
C552        C  0.88165698  0.27510542  0.80984642     1.02100
C553        C  0.55536379  0.02048420  0.60083680     0.85600
C554        C  0.52509720  0.45664128  0.60584134    -0.54600
C555        C  0.98422935  0.44077580  0.58317635     0.08500
C556        C  0.97846662  0.48427181  0.55888275     0.19500
C557        C  0.55930966  0.02613041  0.54980347    -0.55400
C558        C  0.02096606  0.50891089  0.52740481     0.08600
C559        C  0.52545846  0.04620371  0.61557061    -0.54900
C560        C  0.98439663  0.02900507  0.59387391     0.09200
H561        H  0.53103814  0.43189839  0.62941458     0.13700
H562        H  0.94496535  0.47156854  0.54153659    -0.00500
H563        H  0.59289705  0.04070744  0.53441800     0.14000
H564        H  0.53386293  0.07238457  0.64415944     0.13800
C565        C  0.55757826  0.04091172  0.90224431     0.85600
C566        C  0.52213708  0.06051380  0.89127051    -0.54600
C567        C  0.98042447  0.03447341  0.91232229     0.08500
C568        C  0.97956003  0.49122584  0.94352318     0.19500
C569        C  0.55949228  0.04300879  0.95342612    -0.55400
C570        C  0.02116466  0.51502863  0.97663074     0.08600
C571        C  0.53391202  0.48525136  0.88969246    -0.54900
C572        C  0.99185133  0.45906296  0.90903819     0.09200
H573        H  0.52816214  0.09184720  0.86867616     0.13700
H574        H  0.94622188  0.46964010  0.96081964    -0.00500
H575        H  0.59160852  0.06695881  0.96989702     0.14000
H576        H  0.54632721  0.46895199  0.86290473     0.13800
C577        C  0.93264989  0.02315556  0.65724533    -0.10000
C578        C  0.94845127  0.04105806  0.61335227     0.06100
C579        C  0.93694868  0.07749951  0.59371719    -0.03800
C580        C  0.91180020  0.09720990  0.61902294    -0.08300
C581        C  0.89702416  0.07999543  0.66349298     0.05300
C582        C  0.90668681  0.04158961  0.68200193    -0.03300
Br583      Br  0.89055552  0.01744686  0.74319652    -0.03000
H584        H  0.44294619  0.99679199  0.67351698     0.09200
H585        H  0.90489648  0.12697882  0.60449771     0.07200
Br586      Br  0.95824432  0.10415844  0.53421073    -0.03400
C587        C  0.67415204  0.04209249  0.64711062    -0.10000
C588        C  0.69261931  0.09329018  0.66130292     0.06100
C589        C  0.66838635  0.12142634  0.65005478    -0.03800
C590        C  0.62448266  0.09660929  0.63164109    -0.08300
C591        C  0.60321292  0.04377679  0.62262863     0.05300
C592        C  0.63105513  0.01807453  0.62600424    -0.03300
Br593      Br  0.61585401  0.44277713  0.60918873    -0.03000
H594        H  0.69339982  0.02050223  0.65213131     0.09200
H595        H  0.60753740  0.11979329  0.62300233     0.07200
Br596      Br  0.69329323  0.19438623  0.65563997    -0.03600
C597        C  0.90985655  0.38951456  0.62015435    -0.10000
C598        C  0.94593104  0.39049978  0.59369149     0.06100
C599        C  0.95077241  0.34544492  0.58837703    -0.03800
C600        C  0.92429610  0.30278157  0.61494318    -0.08300
C601        C  0.89231996  0.30430411  0.64622240     0.05300
C602        C  0.88368491  0.34735049  0.64717701    -0.03300
Br603      Br  0.84267931  0.35474948  0.69022744    -0.03000
H604        H  0.90489067  0.42337195  0.62336295     0.09200
H605        H  0.93027808  0.26933711  0.61283788     0.07200
Br606      Br  0.99403153  0.34152856  0.54623256    -0.03400
C607        C  0.87456568  0.03869631  0.86367140    -0.10000
C608        C  0.89221813  0.09158619  0.85728144     0.06100
C609        C  0.93250551  0.12401291  0.88074760    -0.03800
C610        C  0.95716874  0.10338493  0.90453452    -0.08300
C611        C  0.94362330  0.05070337  0.90451382     0.05300
C612        C  0.89980496  0.01797591  0.88712138    -0.03300
Br613      Br  0.87438394  0.44781031  0.89655038    -0.03000
H614        H  0.84285041  0.01312742  0.84721980     0.09200
H615        H  0.48962488  0.12915551  0.91965730     0.07200
Br616      Br  0.45783938  0.19697379  0.87935691    -0.03400
C617        C  0.61832705  0.10931466  0.85175360    -0.10000
C618        C  0.60578685  0.06778261  0.88171157     0.06100
C619        C  0.63948154  0.05112618  0.89252690    -0.03800
C620        C  0.68268049  0.07402254  0.87215575    -0.08300
C621        C  0.69405497  0.11403390  0.84136141     0.05300
C622        C  0.66169305  0.13219340  0.83169028    -0.03300
Br623      Br  0.67257021  0.18453387  0.78751596    -0.03000
H624        H  0.59475718  0.12402035  0.84223011     0.09200
H625        H  0.70726083  0.05957511  0.87954114     0.07200
Br626      Br  0.62936479  0.99641926  0.93408745    -0.03400
C627        C  0.92051409  0.36828330  0.81649376    -0.10000
C628        C  0.90419255  0.32115489  0.83832196     0.06100
C629        C  0.91255617  0.31964467  0.88518849    -0.03800
C630        C  0.93943825  0.36509535  0.90883701    -0.08300
C631        C  0.95808076  0.41209312  0.88609965     0.05300
C632        C  0.94729215  0.41337695  0.83965162    -0.03300
Br633      Br  0.96777922  0.47551894  0.80551746    -0.03000
H634        H  0.91371515  0.36991214  0.78061866     0.09200
H635        H  0.94681975  0.36360062  0.94454318     0.07200
Br636      Br  0.88647241  0.25680663  0.91818598    -0.03400
Fe637      Fe  0.89816112  0.69827492  0.25017599     1.65800
Fe638      Fe  0.79844830  0.70757323  0.24839114     1.73200
Fe639      Fe  0.79727775  0.59137521  0.25583643     1.54400
O640        O  0.84356787  0.57794709  0.21586408    -0.82600
O641        O  0.76139096  0.67523428  0.30596683    -0.80900
O642        O  0.90033028  0.65310145  0.19692690    -0.85100
O643        O  0.90256750  0.64854652  0.29756557    -0.79900
O644        O  0.75901150  0.58671984  0.19843725    -0.81700
O645        O  0.84565200  0.76609002  0.28815263    -0.84400
C646        C  0.87490795  0.61209477  0.32205969     0.96300
C647        C  0.87991972  0.60485734  0.19368659     1.03800
O648        O  0.83129532  0.66575567  0.25128101    -1.13400
O649        O  0.83220597  0.74418531  0.19017840    -0.75900
O650        O  0.90272938  0.75304082  0.20289566    -0.79300
O651        O  0.83208022  0.58972583  0.31423903    -0.80000
C652        C  0.87480295  0.76468132  0.18160503     0.95200
O653        O  0.90232957  0.74590561  0.30376789    -0.78000
O654        O  0.74636321  0.65447458  0.20896311    -0.83200
C655        C  0.73696081  0.62815393  0.31318062     0.97800
C656        C  0.73630726  0.61158333  0.19043557     1.03800
O657        O  0.74576912  0.59383337  0.29566605    -0.78800
C658        C  0.88191879  0.77350809  0.30950060     1.02100
C659        C  0.55704590  0.51386496  0.10138333     0.85600
C660        C  0.52375145  0.96372784  0.10863632    -0.54600
C661        C  0.98275253  0.94573348  0.08597338     0.08500
C662        C  0.97641340  0.98697263  0.05830264     0.19500
C663        C  0.56129197  0.52354593  0.05070623    -0.55400
C664        C  0.01881806  0.00990623  0.02643072     0.08600
C665        C  0.52723748  0.53851726  0.11903231    -0.54900
C666        C  0.98652321  0.52361592  0.09722652     0.09200
H667        H  0.53121519  0.94057224  0.13281756     0.13700
H668        H  0.94279763  0.97268124  0.04087860    -0.00500
H669        H  0.59493830  0.53914945  0.03537066     0.14000
H670        H  0.53635391  0.56364145  0.14845177     0.13800
C671        C  0.55907734  0.54139797  0.40308287     0.85600
C672        C  0.52433668  0.56233853  0.39326505    -0.54600
C673        C  0.98268693  0.53675049  0.41458784     0.08500
C674        C  0.97784574  0.98974156  0.44208703     0.19500
C675        C  0.56159699  0.54263896  0.45431442    -0.55400
C676        C  0.01907657  0.01478142  0.47552034     0.08600
C677        C  0.53353429  0.98447787  0.38952600    -0.54900
C678        C  0.99128815  0.95778033  0.40844906     0.09200
H679        H  0.53070262  0.59399529  0.37095384     0.13700
H680        H  0.94437812  0.96780311  0.45910725    -0.00500
H681        H  0.59411621  0.56530760  0.47062903     0.14000
H682        H  0.54669874  0.96834716  0.36327018     0.13800
C683        C  0.93327072  0.51867028  0.15925559    -0.10000
C684        C  0.95174105  0.53792897  0.11637481     0.06100
C685        C  0.94381408  0.57728433  0.09748874    -0.03800
C686        C  0.91890593  0.59778298  0.12218167    -0.08300
C687        C  0.90091128  0.57881495  0.16545831     0.05300
C688        C  0.90751407  0.53798879  0.18341786    -0.03300
Br689      Br  0.88711540  0.51099084  0.24319478    -0.03000
H690        H  0.44098895  0.49014178  0.17520144     0.09200
H691        H  0.91460169  0.62945695  0.10808478     0.07200
Br692      Br  0.96999929  0.60694530  0.04007692    -0.03400
C693        C  0.67500728  0.53584076  0.15133732    -0.10000
C694        C  0.69433012  0.58820850  0.16169380     0.06100
C695        C  0.67056947  0.61588131  0.14762993    -0.03800
C696        C  0.62688013  0.59025714  0.12897344    -0.08300
C697        C  0.60492604  0.53684690  0.12316973     0.05300
C698        C  0.63174990  0.51049399  0.13072742    -0.03300
Br699      Br  0.61570481  0.95301588  0.09838358    -0.03000
H700        H  0.69368910  0.51422351  0.15918797     0.09200
H701        H  0.61008392  0.61296888  0.11819071     0.07200
Br702      Br  0.69555857  0.68901037  0.15040818    -0.03600
C703        C  0.90918922  0.89160890  0.12385303    -0.10000
C704        C  0.94569079  0.89463863  0.09684053     0.06100
C705        C  0.95209066  0.85067486  0.09051406    -0.03800
C706        C  0.92655172  0.80691519  0.11628110    -0.08300
C707        C  0.89354686  0.80594950  0.14754405     0.05300
C708        C  0.88345101  0.84802620  0.14960749    -0.03300
Br709      Br  0.84014393  0.85173516  0.19199834    -0.03000
H710        H  0.90311354  0.92466615  0.12802057     0.09200
H711        H  0.93374140  0.77435732  0.11323887     0.07200
Br712      Br  0.99592934  0.84964039  0.04751696    -0.03400
C713        C  0.87647859  0.54069571  0.36675142    -0.10000
C714        C  0.89452553  0.59333755  0.35881185     0.06100
C715        C  0.93515461  0.62626440  0.38149108    -0.03800
C716        C  0.95992539  0.60607102  0.40572572    -0.08300
C717        C  0.94603387  0.55330560  0.40693172     0.05300
C718        C  0.90171462  0.52038663  0.39072575    -0.03300
Br719      Br  0.87335699  0.94528171  0.39078397    -0.03000
H720        H  0.84439151  0.51484086  0.35108804     0.09200
H721        H  0.49265913  0.63209801  0.42016220     0.07200
Br722      Br  0.46060888  0.69920167  0.37841959    -0.03400
C723        C  0.61994895  0.60916232  0.35218066    -0.10000
C724        C  0.60702294  0.56732848  0.38184982     0.06100
C725        C  0.63993403  0.54913646  0.39138339    -0.03800
C726        C  0.68287339  0.57122611  0.37045478    -0.08300
C727        C  0.69474541  0.61180055  0.34019764     0.05300
C728        C  0.66300601  0.63111075  0.33140052    -0.03300
Br729      Br  0.67420287  0.68384601  0.28752077    -0.03000
H730        H  0.59686597  0.62481135  0.34342600     0.09200
H731        H  0.70689648  0.55580802  0.37710167     0.07200
Br732      Br  0.62899794  0.49325492  0.43180637    -0.03400
C733        C  0.92132913  0.86644328  0.31562205    -0.10000
C734        C  0.90415515  0.81955618  0.33788009     0.06100
C735        C  0.91175417  0.81828117  0.38494156    -0.03800
C736        C  0.93866828  0.86383389  0.40844550    -0.08300
C737        C  0.95811826  0.91061455  0.38532269     0.05300
C738        C  0.94812516  0.91159737  0.33859076    -0.03300
Br739      Br  0.96916018  0.97334185  0.30377242    -0.03000
H740        H  0.91510097  0.86781264  0.27956784     0.09200
H741        H  0.94536756  0.86258792  0.44436546     0.07200
Br742      Br  0.88465992  0.75566957  0.41827690    -0.03400
Fe743      Fe  0.89816109  0.69827486  0.75017602     1.65800
Fe744      Fe  0.79844834  0.70757329  0.74839119     1.73200
Fe745      Fe  0.79727779  0.59137519  0.75583665     1.54400
O746        O  0.84356791  0.57794708  0.71586426    -0.82600
O747        O  0.76139093  0.67523445  0.80596685    -0.80900
O748        O  0.90033022  0.65310141  0.69692689    -0.85100
O749        O  0.90256756  0.64854654  0.79756566    -0.79900
O750        O  0.75901151  0.58671969  0.69843747    -0.81700
O751        O  0.84565209  0.76609009  0.78815263    -0.84400
C752        C  0.87490804  0.61209484  0.82205982     0.96300
C753        C  0.87991968  0.60485729  0.69368666     1.03800
O754        O  0.83129530  0.66575564  0.75128117    -1.13400
O755        O  0.83220604  0.74418535  0.69017838    -0.75900
O756        O  0.90272942  0.75304082  0.70289570    -0.79300
O757        O  0.83208032  0.58972585  0.81423919    -0.80000
C758        C  0.87480302  0.76468132  0.68160500     0.95200
O759        O  0.90232959  0.74590553  0.80376789    -0.78000
O760        O  0.74636327  0.65447449  0.70896323    -0.83200
C761        C  0.73696088  0.62815410  0.81318080     0.97800
C762        C  0.73630727  0.61158318  0.69043575     1.03800
O763        O  0.74576923  0.59383350  0.79566631    -0.78800
C764        C  0.88191889  0.77350811  0.80950056     1.02100
C765        C  0.55704596  0.51386497  0.60138328     0.85600
C766        C  0.52375148  0.96372773  0.60863629    -0.54600
C767        C  0.98275268  0.94573351  0.58597339     0.08500
C768        C  0.97641343  0.98697259  0.55830262     0.19500
C769        C  0.56129200  0.52354598  0.55070619    -0.55400
C770        C  0.01881807  0.00990632  0.52643071     0.08600
C771        C  0.52723756  0.53851725  0.61903226    -0.54900
C772        C  0.98652307  0.52361574  0.59722667     0.09200
H773        H  0.53121526  0.94057210  0.63281749     0.13700
H774        H  0.94279765  0.97268104  0.54087854    -0.00500
H775        H  0.59493829  0.53914963  0.53537069     0.14000
H776        H  0.53635405  0.56364158  0.64845170     0.13800
C777        C  0.55907734  0.54139795  0.90308294     0.85600
C778        C  0.52433662  0.56233846  0.89326505    -0.54600
C779        C  0.98268685  0.53675037  0.91458784     0.08500
C780        C  0.97784574  0.98974145  0.94208702     0.19500
C781        C  0.56159701  0.54263912  0.95431449    -0.55400
C782        C  0.01907657  0.01478134  0.97552036     0.08600
C783        C  0.53353423  0.98447781  0.88952600    -0.54900
C784        C  0.99128822  0.95778032  0.90844900     0.09200
H785        H  0.53070254  0.59399520  0.87095392     0.13700
H786        H  0.94437815  0.96780288  0.95910721    -0.00500
H787        H  0.59411617  0.56530792  0.97062910     0.14000
H788        H  0.54669866  0.96834703  0.86327011     0.13800
C789        C  0.93327078  0.51867028  0.65925581    -0.10000
C790        C  0.95174101  0.53792888  0.61637497     0.06100
C791        C  0.94381414  0.57728432  0.59748889    -0.03800
C792        C  0.91890604  0.59778298  0.62218185    -0.08300
C793        C  0.90091127  0.57881490  0.66545843     0.05300
C794        C  0.90751416  0.53798880  0.68341808    -0.03300
Br795      Br  0.88711545  0.51099075  0.74319498    -0.03000
H796        H  0.44098901  0.49014172  0.67520160     0.09200
H797        H  0.91460185  0.62945702  0.60808495     0.07200
Br798      Br  0.96999904  0.60694510  0.54007688    -0.03400
C799        C  0.67500733  0.53584064  0.65133725    -0.10000
C800        C  0.69433012  0.58820834  0.66169394     0.06100
C801        C  0.67056949  0.61588117  0.64763008    -0.03800
C802        C  0.62688020  0.59025707  0.62897345    -0.08300
C803        C  0.60492611  0.53684684  0.62316966     0.05300
C804        C  0.63174997  0.51049390  0.63072731    -0.03300
Br805      Br  0.61570486  0.95301573  0.59838379    -0.03000
H806        H  0.69368919  0.51422337  0.65918779     0.09200
H807        H  0.61008406  0.61296883  0.61819070     0.07200
Br808      Br  0.69555862  0.68901022  0.65040839    -0.03600
C809        C  0.90918936  0.89160889  0.62385303    -0.10000
C810        C  0.94569100  0.89463868  0.59684062     0.06100
C811        C  0.95209085  0.85067489  0.59051416    -0.03800
C812        C  0.92655180  0.80691516  0.61628105    -0.08300
C813        C  0.89354695  0.80594946  0.64754399     0.05300
C814        C  0.88345114  0.84802619  0.64960745    -0.03300
Br815      Br  0.84014397  0.85173504  0.69199824    -0.03000
H816        H  0.90311356  0.92466612  0.62802052     0.09200
H817        H  0.93374147  0.77435726  0.61323876     0.07200
Br818      Br  0.99592948  0.84964030  0.54751711    -0.03400
C819        C  0.87647854  0.54069583  0.86675158    -0.10000
C820        C  0.89452559  0.59333766  0.85881197     0.06100
C821        C  0.93515468  0.62626449  0.88149119    -0.03800
C822        C  0.95992541  0.60607102  0.90572581    -0.08300
C823        C  0.94603382  0.55330557  0.90693176     0.05300
C824        C  0.90171457  0.52038669  0.89072582    -0.03300
Br825      Br  0.87335678  0.94528160  0.89078384    -0.03000
H826        H  0.84439137  0.51484097  0.85108831     0.09200
H827        H  0.49265907  0.63209801  0.92016220     0.07200
Br828      Br  0.46060906  0.69920183  0.87841946    -0.03400
C829        C  0.61994899  0.60916236  0.85218084    -0.10000
C830        C  0.60702298  0.56732849  0.88184993     0.06100
C831        C  0.63993411  0.54913653  0.89138349    -0.03800
C832        C  0.68287351  0.57122627  0.87045497    -0.08300
C833        C  0.69474551  0.61180071  0.84019786     0.05300
C834        C  0.66300606  0.63111086  0.83140073    -0.03300
Br835      Br  0.67420265  0.68384583  0.78752069    -0.03000
H836        H  0.59686600  0.62481133  0.84342617     0.09200
H837        H  0.70689660  0.55580819  0.87710188     0.07200
Br838      Br  0.62899809  0.49325502  0.93180635    -0.03400
C839        C  0.92132928  0.86644329  0.81562192    -0.10000
C840        C  0.90415533  0.81955618  0.83787999     0.06100
C841        C  0.91175420  0.81828115  0.88494147    -0.03800
C842        C  0.93866820  0.86383389  0.90844542    -0.08300
C843        C  0.95811833  0.91061456  0.88532258     0.05300
C844        C  0.94812531  0.91159741  0.83859062    -0.03300
Br845      Br  0.96916035  0.97334198  0.80377233    -0.03000
H846        H  0.91510109  0.86781263  0.77956771     0.09200
H847        H  0.94536729  0.86258795  0.94436543     0.07200
Br848      Br  0.88465971  0.75566948  0.91827676    -0.03400
loop_ 
_geom_bond_atom_site_label_1 
_geom_bond_atom_site_label_2 
_geom_bond_distance 
_geom_bond_site_symmetry_2 
_ccdc_geom_bond_type 
Fe1          O17   2.069       .  S
Fe1           O7   2.069       .  S
Fe1          O14   2.075       .  S
Fe1           O6   2.066       .  S
Fe1          O12   1.953       .  S
Fe2           O5   2.052       .  S
Fe2           O9   2.078       .  S
Fe2          O13   2.057       .  S
Fe2          O18   2.067       .  S
Fe2          O12   1.959       .  S
Fe3          O21   2.072       .  S
Fe3           O8   2.074       .  S
Fe3          O15   2.077       .  S
Fe3           O4   2.079       .  S
Fe3          O12   1.963       .  S
O4           C11   1.271       .  A
O5           C19   1.268       .  A
O6           C11   1.268       .  A
O7           C10   1.271       .  A
O8           C20   1.272       .  A
O9           C22   1.270       .  A
C10          O15   1.272       .  A
C10          C78   1.485       .  S
C11          C51   1.478       .  S
O13          C16   1.268       .  A
O14          C16   1.272       .  A
C16          C71   1.473       .  S
O17          C22   1.268       .  A
O18          C20   1.269       .  A
C19          O21   1.271       .  A
C19          C91   1.470       .  S
C20          C58   1.492       .  S
C22          C98   1.474       .  S
C23          C29   1.537       .  S
C23          C27   1.509       .  S
C23         C236   1.534   1_545  S
C23          C61   1.537       .  S
C24         C235   1.535       .  S
C24          H31   1.083       .  S
C24         C449   1.373   1_455  D
C25          C26   1.547       .  S
C25         C448   1.373       .  D
C25          C68   1.478       .  S
C26          C28   1.551       .  S
C26         C242   1.547       .  S
C26          H32   1.110       .  S
C27          H33   1.081       .  S
C27         C664   1.373       .  D
C28         C663   1.372       .  D
C28         C146   1.504   1_554  S
C29          H34   1.087       .  S
C29         C454   1.362   1_455  D
C30         C238   1.545   1_545  S
C30         C453   1.362       .  D
C30          C48   1.481       .  S
C35          C36   1.539       .  S
C35          C39   1.507       .  S
C35         C253   1.527   1_545  S
C35          C88   1.533       .  S
C36          H43   1.080       .  S
C36         C461   1.374   1_455  D
C37         C250   1.550   1_545  S
C37         C460   1.374       .  D
C37          C81   1.494       .  S
C38          C42   1.552       .  S
C38          C40   1.560       .  S
C38         C249   1.550       .  S
C38          H44   1.108       .  S
C39          H45   1.081       .  S
C39         C676   1.368       .  D
C40         C675   1.368       .  D
C40         C134   1.504       .  S
C41         C247   1.526       .  S
C41          H46   1.087       .  S
C41         C466   1.362   1_455  D
C42         C465   1.362       .  D
C42         C101   1.486       .  S
C47          C48   1.403       .  A
C47          C52   1.394       .  A
C47         H478   1.084   1_545  S
C48          C49   1.407       .  A
C49          C50   1.407       .  A
C49         Br56   1.917       .  S
C50          C51   1.408       .  A
C50          H55   1.083       .  S
C51          C52   1.409       .  A
C52         Br53   1.920       .  S
H54         C471   1.084   1_565  S
C57          C58   1.407       .  A
C57          C62   1.405       .  A
C57          H64   1.083       .  S
C58          C59   1.414       .  A
C59          C60   1.394       .  A
C59         Br66   1.926       .  S
C60          C61   1.411       .  A
C60          H65   1.081       .  S
C61          C62   1.420       .  A
C62        Br275   1.921   1_545  S
Br63        C274   1.920       .  S
C67          C68   1.399       .  A
C67          C72   1.396       .  A
C67          H74   1.079       .  S
C68          C69   1.407       .  A
C69          C70   1.400       .  A
C69         Br76   1.918       .  S
C70          C71   1.405       .  A
C70          H75   1.084       .  S
C71          C72   1.411       .  A
C72         Br73   1.921       .  S
C77          C78   1.406       .  A
C77          C82   1.405       .  A
C77          H84   1.083       .  S
C78          C79   1.411       .  A
C79          C80   1.394       .  A
C79        Br510   1.919       .  S
C80          C81   1.404       .  A
C80         H509   1.084       .  S
C81          C82   1.414       .  A
C82        Br295   1.913   1_545  S
Br83        C294   1.913       .  S
H85         C504   1.084       .  S
Br86        C503   1.919       .  S
C87          C88   1.410       .  A
C87          C92   1.397       .  A
C87          H94   1.074       .  S
C88          C89   1.425       .  A
C89          C90   1.396       .  A
C89         Br96   1.927   1_545  S
C90          C91   1.397       .  A
C90          H95   1.084       .  S
C91          C92   1.408       .  A
C92         Br93   1.922       .  S
C97          C98   1.397       .  A
C97         C102   1.393       .  A
C97         H104   1.084       .  S
C98          C99   1.410       .  A
C99         C100   1.408       .  A
C99        Br106   1.915       .  S
C100        C101   1.404       .  A
C100        H105   1.083       .  S
C101        C102   1.416       .  A
C102       Br103   1.922       .  S
Fe107       O123   2.069       .  S
Fe107       O113   2.069       .  S
Fe107       O120   2.075       .  S
Fe107       O112   2.066       .  S
Fe107       O118   1.953       .  S
Fe108       O111   2.052       .  S
Fe108       O115   2.078       .  S
Fe108       O119   2.057       .  S
Fe108       O124   2.067       .  S
Fe108       O118   1.959       .  S
Fe109       O127   2.072       .  S
Fe109       O114   2.074       .  S
Fe109       O121   2.077       .  S
Fe109       O110   2.079       .  S
Fe109       O118   1.963       .  S
O110        C117   1.271       .  A
O111        C125   1.268       .  A
O112        C117   1.268       .  A
O113        C116   1.271       .  A
O114        C126   1.272       .  A
O115        C128   1.270       .  A
C116        O121   1.272       .  A
C116        C184   1.485       .  S
C117        C157   1.478       .  S
O119        C122   1.268       .  A
O120        C122   1.272       .  A
C122        C177   1.473       .  S
O123        C128   1.268       .  A
O124        C126   1.269       .  A
C125        O127   1.271       .  A
C125        C197   1.470       .  S
C126        C164   1.492       .  S
C128        C204   1.474       .  S
C129        C342   1.534   1_545  S
C129        C135   1.537       .  S
C129        C133   1.509       .  S
C129        C167   1.537       .  S
C130        C341   1.535       .  S
C130        H137   1.083       .  S
C130        C555   1.373   1_455  D
C131        C132   1.547       .  S
C131        C554   1.373       .  D
C131        C174   1.478       .  S
C132        C348   1.547       .  S
C132        C134   1.551       .  S
C132        H138   1.110       .  S
C133        H139   1.081       .  S
C133        C770   1.373       .  D
C134        C769   1.372       .  D
C135        H140   1.087       .  S
C135        C560   1.362   1_455  D
C136        C344   1.545   1_545  S
C136        C559   1.362       .  D
C136        C154   1.481       .  S
C141        C142   1.539       .  S
C141        C359   1.527   1_545  S
C141        C145   1.507       .  S
C141        C194   1.533       .  S
C142        H149   1.080       .  S
C142        C567   1.374   1_455  D
C143        C356   1.550   1_545  S
C143        C566   1.374       .  D
C143        C187   1.494       .  S
C144        C355   1.550       .  S
C144        C148   1.552       .  S
C144        C146   1.560       .  S
C144        H150   1.108       .  S
C145        H151   1.081       .  S
C145        C782   1.368       .  D
C146        C781   1.368       .  D
C147        C353   1.526       .  S
C147        H152   1.087       .  S
C147        C572   1.362   1_455  D
C148        C571   1.362       .  D
C148        C207   1.486       .  S
C153        C154   1.403       .  A
C153        C158   1.394       .  A
C153        H584   1.084   1_545  S
C154        C155   1.407       .  A
C155        C156   1.407       .  A
C155       Br162   1.917       .  S
C156        C157   1.408       .  A
C156        H161   1.083       .  S
C157        C158   1.409       .  A
C158       Br159   1.920       .  S
H160        C577   1.084   1_565  S
C163        C164   1.407       .  A
C163        C168   1.405       .  A
C163        H170   1.083       .  S
C164        C165   1.414       .  A
C165        C166   1.394       .  A
C165       Br172   1.926       .  S
C166        C167   1.411       .  A
C166        H171   1.081       .  S
C167        C168   1.420       .  A
C168       Br381   1.921   1_545  S
Br169       C380   1.920       .  S
C173        C174   1.399       .  A
C173        C178   1.396       .  A
C173        H180   1.079       .  S
C174        C175   1.407       .  A
C175        C176   1.400       .  A
C175       Br182   1.918       .  S
C176        C177   1.405       .  A
C176        H181   1.084       .  S
C177        C178   1.411       .  A
C178       Br179   1.921       .  S
C183        C184   1.406       .  A
C183        C188   1.405       .  A
C183        H190   1.083       .  S
C184        C185   1.411       .  A
C185        C186   1.394       .  A
C185       Br616   1.919       .  S
C186        C187   1.404       .  A
C186        H615   1.084       .  S
C187        C188   1.414       .  A
C188       Br401   1.913   1_545  S
Br189       C400   1.913       .  S
H191        C610   1.084       .  S
Br192       C609   1.919       .  S
C193        C194   1.410       .  A
C193        C198   1.397       .  A
C193        H200   1.074       .  S
C194        C195   1.425       .  A
C195        C196   1.396       .  A
C195       Br202   1.927   1_545  S
C196        C197   1.397       .  A
C196        H201   1.084       .  S
C197        C198   1.408       .  A
C198       Br199   1.922       .  S
C203        C204   1.397       .  A
C203        C208   1.393       .  A
C203        H210   1.084       .  S
C204        C205   1.410       .  A
C205        C206   1.408       .  A
C205       Br212   1.915       .  S
C206        C207   1.404       .  A
C206        H211   1.083       .  S
C207        C208   1.416       .  A
C208       Br209   1.922       .  S
Fe213       O229   2.067       .  S
Fe213       O219   2.071       .  S
Fe213       O226   2.082       .  S
Fe213       O218   2.069       .  S
Fe213       O224   1.952       .  S
Fe214       O217   2.051       .  S
Fe214       O221   2.078       .  S
Fe214       O225   2.060       .  S
Fe214       O230   2.071       .  S
Fe214       O224   1.958       .  S
Fe215       O233   2.074       .  S
Fe215       O220   2.069       .  S
Fe215       O227   2.074       .  S
Fe215       O216   2.083       .  S
Fe215       O224   1.961       .  S
O216        C223   1.272       .  A
O217        C231   1.267       .  A
O218        C223   1.270       .  A
O219        C222   1.271       .  A
O220        C232   1.273       .  A
O221        C234   1.270       .  A
C222        O227   1.272       .  A
C222        C290   1.484       .  S
C223        C263   1.484       .  S
O225        C228   1.268       .  A
O226        C228   1.273       .  A
C228        C283   1.478       .  S
O229        C234   1.268       .  A
O230        C232   1.271       .  A
C231        O233   1.271       .  A
C231        C303   1.471       .  S
C232        C270   1.491       .  S
C234        C310   1.472       .  S
C235        C241   1.536       .  S
C235        C239   1.513       .  S
C235        C273   1.538       .  S
C236        H243   1.085       .  S
C236        C661   1.372   1_455  D
C237        C238   1.548       .  S
C237        C660   1.372       .  D
C237        C280   1.480       .  S
C238        C240   1.553   1_565  S
C238        H244   1.110       .  S
C239        H245   1.081       .  S
C239        C452   1.372       .  D
C240        C451   1.373       .  D
C240        C358   1.504   1_554  S
C241        H246   1.087       .  S
C241        C666   1.360   1_455  D
C242        C665   1.360       .  D
C242        C260   1.484       .  S
C247        C248   1.539       .  S
C247        C251   1.509       .  S
C247        C300   1.533       .  S
C248        H255   1.080       .  S
C248        C673   1.375   1_455  D
C249        C672   1.375       .  D
C249        C293   1.495       .  S
C250        C254   1.552       .  S
C250        C252   1.560   1_565  S
C250        H256   1.108       .  S
C251        H257   1.081       .  S
C251        C464   1.368       .  D
C252        C463   1.368       .  D
C252        C346   1.504       .  S
C253        H258   1.087       .  S
C253        C678   1.363   1_455  D
C254        C677   1.363       .  D
C254        C313   1.486       .  S
C259        C260   1.403       .  A
C259        C264   1.397       .  A
C259        H690   1.084       .  S
C260        C261   1.407       .  A
C261        C262   1.407       .  A
C261       Br268   1.917       .  S
C262        C263   1.408       .  A
C262        H267   1.083       .  S
C263        C264   1.412       .  A
C264       Br265   1.922       .  S
H266        C683   1.084       .  S
C269        C270   1.408       .  A
C269        C274   1.405       .  A
C269        H276   1.083       .  S
C270        C271   1.413       .  A
C271        C272   1.393       .  A
C271       Br278   1.925       .  S
C272        C273   1.411       .  A
C272        H277   1.083       .  S
C273        C274   1.421       .  A
C279        C280   1.399       .  A
C279        C284   1.399       .  A
C279        H286   1.079       .  S
C280        C281   1.407       .  A
C281        C282   1.401       .  A
C281       Br288   1.917       .  S
C282        C283   1.405       .  A
C282        H287   1.083       .  S
C283        C284   1.413       .  A
C284       Br285   1.921       .  S
C289        C290   1.405       .  A
C289        C294   1.405       .  A
C289        H296   1.083       .  S
C290        C291   1.411       .  A
C291        C292   1.394       .  A
C291       Br722   1.920       .  S
C292        C293   1.405       .  A
C292        H721   1.084       .  S
C293        C294   1.415       .  A
H297        C716   1.084       .  S
Br298       C715   1.920       .  S
C299        C300   1.410       .  A
C299        C304   1.397       .  A
C299        H306   1.074       .  S
C300        C301   1.425       .  A
C301        C302   1.396       .  A
C301       Br308   1.927       .  S
C302        C303   1.397       .  A
C302        H307   1.084       .  S
C303        C304   1.409       .  A
C304       Br305   1.922       .  S
C309        C310   1.396       .  A
C309        C314   1.392       .  A
C309        H316   1.084       .  S
C310        C311   1.410       .  A
C311        C312   1.408       .  A
C311       Br318   1.916       .  S
C312        C313   1.405       .  A
C312        H317   1.083       .  S
C313        C314   1.417       .  A
C314       Br315   1.922       .  S
Fe319       O335   2.067       .  S
Fe319       O325   2.071       .  S
Fe319       O332   2.082       .  S
Fe319       O324   2.069       .  S
Fe319       O330   1.952       .  S
Fe320       O323   2.051       .  S
Fe320       O327   2.078       .  S
Fe320       O331   2.060       .  S
Fe320       O336   2.071       .  S
Fe320       O330   1.958       .  S
Fe321       O339   2.074       .  S
Fe321       O326   2.069       .  S
Fe321       O333   2.074       .  S
Fe321       O322   2.083       .  S
Fe321       O330   1.961       .  S
O322        C329   1.272       .  A
O323        C337   1.267       .  A
O324        C329   1.270       .  A
O325        C328   1.271       .  A
O326        C338   1.273       .  A
O327        C340   1.270       .  A
C328        O333   1.272       .  A
C328        C396   1.484       .  S
C329        C369   1.484       .  S
O331        C334   1.268       .  A
O332        C334   1.273       .  A
C334        C389   1.478       .  S
O335        C340   1.268       .  A
O336        C338   1.271       .  A
C337        O339   1.271       .  A
C337        C409   1.471       .  S
C338        C376   1.491       .  S
C340        C416   1.472       .  S
C341        C347   1.536       .  S
C341        C345   1.513       .  S
C341        C379   1.538       .  S
C342        H349   1.085       .  S
C342        C767   1.372   1_455  D
C343        C344   1.548       .  S
C343        C766   1.372       .  D
C343        C386   1.480       .  S
C344        C346   1.553   1_565  S
C344        H350   1.110       .  S
C345        H351   1.081       .  S
C345        C558   1.372       .  D
C346        C557   1.373       .  D
C347        H352   1.087       .  S
C347        C772   1.360   1_455  D
C348        C771   1.360       .  D
C348        C366   1.484       .  S
C353        C354   1.539       .  S
C353        C357   1.509       .  S
C353        C406   1.533       .  S
C354        H361   1.080       .  S
C354        C779   1.375   1_455  D
C355        C778   1.375       .  D
C355        C399   1.495       .  S
C356        C360   1.552       .  S
C356        C358   1.560   1_565  S
C356        H362   1.108       .  S
C357        H363   1.081       .  S
C357        C570   1.368       .  D
C358        C569   1.368       .  D
C359        H364   1.087       .  S
C359        C784   1.363   1_455  D
C360        C783   1.363       .  D
C360        C419   1.486       .  S
C365        C366   1.403       .  A
C365        C370   1.397       .  A
C365        H796   1.084       .  S
C366        C367   1.407       .  A
C367        C368   1.407       .  A
C367       Br374   1.917       .  S
C368        C369   1.408       .  A
C368        H373   1.083       .  S
C369        C370   1.412       .  A
C370       Br371   1.922       .  S
H372        C789   1.084       .  S
C375        C376   1.408       .  A
C375        C380   1.405       .  A
C375        H382   1.083       .  S
C376        C377   1.413       .  A
C377        C378   1.393       .  A
C377       Br384   1.925       .  S
C378        C379   1.411       .  A
C378        H383   1.083       .  S
C379        C380   1.421       .  A
C385        C386   1.399       .  A
C385        C390   1.399       .  A
C385        H392   1.079       .  S
C386        C387   1.407       .  A
C387        C388   1.401       .  A
C387       Br394   1.917       .  S
C388        C389   1.405       .  A
C388        H393   1.083       .  S
C389        C390   1.413       .  A
C390       Br391   1.921       .  S
C395        C396   1.405       .  A
C395        C400   1.405       .  A
C395        H402   1.083       .  S
C396        C397   1.411       .  A
C397        C398   1.394       .  A
C397       Br828   1.920       .  S
C398        C399   1.405       .  A
C398        H827   1.084       .  S
C399        C400   1.415       .  A
H403        C822   1.084       .  S
Br404       C821   1.920       .  S
C405        C406   1.410       .  A
C405        C410   1.397       .  A
C405        H412   1.074       .  S
C406        C407   1.425       .  A
C407        C408   1.396       .  A
C407       Br414   1.927       .  S
C408        C409   1.397       .  A
C408        H413   1.084       .  S
C409        C410   1.409       .  A
C410       Br411   1.922       .  S
C415        C416   1.396       .  A
C415        C420   1.392       .  A
C415        H422   1.084       .  S
C416        C417   1.410       .  A
C417        C418   1.408       .  A
C417       Br424   1.916       .  S
C418        C419   1.405       .  A
C418        H423   1.083       .  S
C419        C420   1.417       .  A
C420       Br421   1.922       .  S
Fe425       O441   2.069       .  S
Fe425       O431   2.069       .  S
Fe425       O438   2.075       .  S
Fe425       O430   2.066       .  S
Fe425       O436   1.953       .  S
Fe426       O429   2.052       .  S
Fe426       O433   2.078       .  S
Fe426       O437   2.057       .  S
Fe426       O442   2.067       .  S
Fe426       O436   1.959       .  S
Fe427       O445   2.072       .  S
Fe427       O432   2.074       .  S
Fe427       O439   2.077       .  S
Fe427       O428   2.079       .  S
Fe427       O436   1.963       .  S
O428        C435   1.271       .  A
O429        C443   1.268       .  A
O430        C435   1.268       .  A
O431        C434   1.271       .  A
O432        C444   1.272       .  A
O433        C446   1.270       .  A
C434        O439   1.272       .  A
C434        C502   1.485       .  S
C435        C475   1.478       .  S
O437        C440   1.268       .  A
O438        C440   1.272       .  A
C440        C495   1.473       .  S
O441        C446   1.268       .  A
O442        C444   1.269       .  A
C443        O445   1.271       .  A
C443        C515   1.470       .  S
C444        C482   1.492       .  S
C446        C522   1.474       .  S
C447        C660   1.534   1_545  S
C447        C453   1.537       .  S
C447        C451   1.509       .  S
C447        C485   1.537       .  S
C448        C659   1.535       .  S
C448        H455   1.083       .  S
C449        C450   1.547       .  S
C449        C492   1.478       .  S
C450        C666   1.547       .  S
C450        C452   1.551   1_655  S
C450        H456   1.110       .  S
C451        H457   1.081       .  S
C452        C570   1.504   1_554  S
C453        H458   1.087       .  S
C454        C662   1.545   1_545  S
C454        C472   1.481       .  S
C459        C460   1.539       .  S
C459        C677   1.527   1_545  S
C459        C463   1.507       .  S
C459        C512   1.533       .  S
C460        H467   1.080       .  S
C461        C674   1.550   1_545  S
C461        C505   1.494       .  S
C462        C673   1.550       .  S
C462        C466   1.552       .  S
C462        C464   1.560   1_655  S
C462        H468   1.108       .  S
C463        H469   1.081       .  S
C464        C558   1.504       .  S
C465        C671   1.526       .  S
C465        H470   1.087       .  S
C466        C525   1.486       .  S
C471        C472   1.403       .  A
C471        C476   1.394       .  A
C472        C473   1.407       .  A
C473        C474   1.407       .  A
C473       Br480   1.917       .  S
C474        C475   1.408       .  A
C474        H479   1.083       .  S
C475        C476   1.409       .  A
C476       Br477   1.920       .  S
C481        C482   1.407       .  A
C481        C486   1.405       .  A
C481        H488   1.083       .  S
C482        C483   1.414       .  A
C483        C484   1.394       .  A
C483       Br490   1.926       .  S
C484        C485   1.411       .  A
C484        H489   1.081       .  S
C485        C486   1.420       .  A
C486       Br699   1.921   1_545  S
Br487       C698   1.920       .  S
C491        C492   1.399       .  A
C491        C496   1.396       .  A
C491        H498   1.079       .  S
C492        C493   1.407       .  A
C493        C494   1.400       .  A
C493       Br500   1.918       .  S
C494        C495   1.405       .  A
C494        H499   1.084       .  S
C495        C496   1.411       .  A
C496       Br497   1.921       .  S
C501        C502   1.406       .  A
C501        C506   1.405       .  A
C501        H508   1.083       .  S
C502        C503   1.411       .  A
C503        C504   1.394       .  A
C504        C505   1.404       .  A
C505        C506   1.414       .  A
C506       Br719   1.913   1_545  S
Br507       C718   1.913       .  S
C511        C512   1.410       .  A
C511        C516   1.397       .  A
C511        H518   1.074       .  S
C512        C513   1.425       .  A
C513        C514   1.396       .  A
C513       Br520   1.927   1_545  S
C514        C515   1.397       .  A
C514        H519   1.084       .  S
C515        C516   1.408       .  A
C516       Br517   1.922       .  S
C521        C522   1.397       .  A
C521        C526   1.393       .  A
C521        H528   1.084       .  S
C522        C523   1.410       .  A
C523        C524   1.408       .  A
C523       Br530   1.915       .  S
C524        C525   1.404       .  A
C524        H529   1.083       .  S
C525        C526   1.416       .  A
C526       Br527   1.922       .  S
Fe531       O547   2.069       .  S
Fe531       O537   2.069       .  S
Fe531       O544   2.075       .  S
Fe531       O536   2.066       .  S
Fe531       O542   1.953       .  S
Fe532       O535   2.052       .  S
Fe532       O539   2.078       .  S
Fe532       O543   2.057       .  S
Fe532       O548   2.067       .  S
Fe532       O542   1.959       .  S
Fe533       O551   2.072       .  S
Fe533       O538   2.074       .  S
Fe533       O545   2.077       .  S
Fe533       O534   2.079       .  S
Fe533       O542   1.963       .  S
O534        C541   1.271       .  A
O535        C549   1.268       .  A
O536        C541   1.268       .  A
O537        C540   1.271       .  A
O538        C550   1.272       .  A
O539        C552   1.270       .  A
C540        O545   1.272       .  A
C540        C608   1.485       .  S
C541        C581   1.478       .  S
O543        C546   1.268       .  A
O544        C546   1.272       .  A
C546        C601   1.473       .  S
O547        C552   1.268       .  A
O548        C550   1.269       .  A
C549        O551   1.271       .  A
C549        C621   1.470       .  S
C550        C588   1.492       .  S
C552        C628   1.474       .  S
C553        C766   1.534   1_545  S
C553        C559   1.537       .  S
C553        C557   1.509       .  S
C553        C591   1.537       .  S
C554        C765   1.535       .  S
C554        H561   1.083       .  S
C555        C556   1.547       .  S
C555        C598   1.478       .  S
C556        C772   1.547       .  S
C556        C558   1.551   1_655  S
C556        H562   1.110       .  S
C557        H563   1.081       .  S
C559        H564   1.087       .  S
C560        C768   1.545   1_545  S
C560        C578   1.481       .  S
C565        C566   1.539       .  S
C565        C783   1.527   1_545  S
C565        C569   1.507       .  S
C565        C618   1.533       .  S
C566        H573   1.080       .  S
C567        C780   1.550   1_545  S
C567        C611   1.494       .  S
C568        C779   1.550       .  S
C568        C572   1.552       .  S
C568        C570   1.560   1_655  S
C568        H574   1.108       .  S
C569        H575   1.081       .  S
C571        C777   1.526       .  S
C571        H576   1.087       .  S
C572        C631   1.486       .  S
C577        C578   1.403       .  A
C577        C582   1.394       .  A
C578        C579   1.407       .  A
C579        C580   1.407       .  A
C579       Br586   1.917       .  S
C580        C581   1.408       .  A
C580        H585   1.083       .  S
C581        C582   1.409       .  A
C582       Br583   1.920       .  S
C587        C588   1.407       .  A
C587        C592   1.405       .  A
C587        H594   1.083       .  S
C588        C589   1.414       .  A
C589        C590   1.394       .  A
C589       Br596   1.926       .  S
C590        C591   1.411       .  A
C590        H595   1.081       .  S
C591        C592   1.420       .  A
C592       Br805   1.921   1_545  S
Br593       C804   1.920       .  S
C597        C598   1.399       .  A
C597        C602   1.396       .  A
C597        H604   1.079       .  S
C598        C599   1.407       .  A
C599        C600   1.400       .  A
C599       Br606   1.918       .  S
C600        C601   1.405       .  A
C600        H605   1.084       .  S
C601        C602   1.411       .  A
C602       Br603   1.921       .  S
C607        C608   1.406       .  A
C607        C612   1.405       .  A
C607        H614   1.083       .  S
C608        C609   1.411       .  A
C609        C610   1.394       .  A
C610        C611   1.404       .  A
C611        C612   1.414       .  A
C612       Br825   1.913   1_545  S
Br613       C824   1.913       .  S
C617        C618   1.410       .  A
C617        C622   1.397       .  A
C617        H624   1.074       .  S
C618        C619   1.425       .  A
C619        C620   1.396       .  A
C619       Br626   1.927   1_545  S
C620        C621   1.397       .  A
C620        H625   1.084       .  S
C621        C622   1.408       .  A
C622       Br623   1.922       .  S
C627        C628   1.397       .  A
C627        C632   1.393       .  A
C627        H634   1.084       .  S
C628        C629   1.410       .  A
C629        C630   1.408       .  A
C629       Br636   1.915       .  S
C630        C631   1.404       .  A
C630        H635   1.083       .  S
C631        C632   1.416       .  A
C632       Br633   1.922       .  S
Fe637       O653   2.067       .  S
Fe637       O643   2.071       .  S
Fe637       O650   2.082       .  S
Fe637       O642   2.069       .  S
Fe637       O648   1.952       .  S
Fe638       O641   2.051       .  S
Fe638       O645   2.078       .  S
Fe638       O649   2.060       .  S
Fe638       O654   2.071       .  S
Fe638       O648   1.958       .  S
Fe639       O657   2.074       .  S
Fe639       O644   2.069       .  S
Fe639       O651   2.074       .  S
Fe639       O640   2.083       .  S
Fe639       O648   1.961       .  S
O640        C647   1.272       .  A
O641        C655   1.267       .  A
O642        C647   1.270       .  A
O643        C646   1.271       .  A
O644        C656   1.273       .  A
O645        C658   1.270       .  A
C646        O651   1.272       .  A
C646        C714   1.484       .  S
C647        C687   1.484       .  S
O649        C652   1.268       .  A
O650        C652   1.273       .  A
C652        C707   1.478       .  S
O653        C658   1.268       .  A
O654        C656   1.271       .  A
C655        O657   1.271       .  A
C655        C727   1.471       .  S
C656        C694   1.491       .  S
C658        C734   1.472       .  S
C659        C665   1.536       .  S
C659        C663   1.513       .  S
C659        C697   1.538       .  S
C660        H667   1.085       .  S
C661        C662   1.548       .  S
C661        C704   1.480       .  S
C662        C664   1.553   1_665  S
C662        H668   1.110       .  S
C663        H669   1.081       .  S
C664        C782   1.504   1_554  S
C665        H670   1.087       .  S
C666        C684   1.484       .  S
C671        C672   1.539       .  S
C671        C675   1.509       .  S
C671        C724   1.533       .  S
C672        H679   1.080       .  S
C673        C717   1.495       .  S
C674        C678   1.552       .  S
C674        C676   1.560   1_665  S
C674        H680   1.108       .  S
C675        H681   1.081       .  S
C676        C770   1.504       .  S
C677        H682   1.087       .  S
C678        C737   1.486       .  S
C683        C684   1.403       .  A
C683        C688   1.397       .  A
C684        C685   1.407       .  A
C685        C686   1.407       .  A
C685       Br692   1.917       .  S
C686        C687   1.408       .  A
C686        H691   1.083       .  S
C687        C688   1.412       .  A
C688       Br689   1.922       .  S
C693        C694   1.408       .  A
C693        C698   1.405       .  A
C693        H700   1.083       .  S
C694        C695   1.413       .  A
C695        C696   1.393       .  A
C695       Br702   1.925       .  S
C696        C697   1.411       .  A
C696        H701   1.083       .  S
C697        C698   1.421       .  A
C703        C704   1.399       .  A
C703        C708   1.399       .  A
C703        H710   1.079       .  S
C704        C705   1.407       .  A
C705        C706   1.401       .  A
C705       Br712   1.917       .  S
C706        C707   1.405       .  A
C706        H711   1.083       .  S
C707        C708   1.413       .  A
C708       Br709   1.921       .  S
C713        C714   1.405       .  A
C713        C718   1.405       .  A
C713        H720   1.083       .  S
C714        C715   1.411       .  A
C715        C716   1.394       .  A
C716        C717   1.405       .  A
C717        C718   1.415       .  A
C723        C724   1.410       .  A
C723        C728   1.397       .  A
C723        H730   1.074       .  S
C724        C725   1.425       .  A
C725        C726   1.396       .  A
C725       Br732   1.927       .  S
C726        C727   1.397       .  A
C726        H731   1.084       .  S
C727        C728   1.409       .  A
C728       Br729   1.922       .  S
C733        C734   1.396       .  A
C733        C738   1.392       .  A
C733        H740   1.084       .  S
C734        C735   1.410       .  A
C735        C736   1.408       .  A
C735       Br742   1.916       .  S
C736        C737   1.405       .  A
C736        H741   1.083       .  S
C737        C738   1.417       .  A
C738       Br739   1.922       .  S
Fe743       O759   2.067       .  S
Fe743       O749   2.071       .  S
Fe743       O756   2.082       .  S
Fe743       O748   2.069       .  S
Fe743       O754   1.952       .  S
Fe744       O747   2.051       .  S
Fe744       O751   2.078       .  S
Fe744       O755   2.060       .  S
Fe744       O760   2.071       .  S
Fe744       O754   1.958       .  S
Fe745       O763   2.074       .  S
Fe745       O750   2.069       .  S
Fe745       O757   2.074       .  S
Fe745       O746   2.083       .  S
Fe745       O754   1.961       .  S
O746        C753   1.272       .  A
O747        C761   1.267       .  A
O748        C753   1.270       .  A
O749        C752   1.271       .  A
O750        C762   1.273       .  A
O751        C764   1.270       .  A
C752        O757   1.272       .  A
C752        C820   1.484       .  S
C753        C793   1.484       .  S
O755        C758   1.268       .  A
O756        C758   1.273       .  A
C758        C813   1.478       .  S
O759        C764   1.268       .  A
O760        C762   1.271       .  A
C761        O763   1.271       .  A
C761        C833   1.471       .  S
C762        C800   1.491       .  S
C764        C840   1.472       .  S
C765        C771   1.536       .  S
C765        C769   1.513       .  S
C765        C803   1.538       .  S
C766        H773   1.085       .  S
C767        C768   1.548       .  S
C767        C810   1.480       .  S
C768        C770   1.553   1_665  S
C768        H774   1.110       .  S
C769        H775   1.081       .  S
C771        H776   1.087       .  S
C772        C790   1.484       .  S
C777        C778   1.539       .  S
C777        C781   1.509       .  S
C777        C830   1.533       .  S
C778        H785   1.080       .  S
C779        C823   1.495       .  S
C780        C784   1.552       .  S
C780        C782   1.560   1_665  S
C780        H786   1.108       .  S
C781        H787   1.081       .  S
C783        H788   1.087       .  S
C784        C843   1.486       .  S
C789        C790   1.403       .  A
C789        C794   1.397       .  A
C790        C791   1.407       .  A
C791        C792   1.407       .  A
C791       Br798   1.917       .  S
C792        C793   1.408       .  A
C792        H797   1.083       .  S
C793        C794   1.412       .  A
C794       Br795   1.922       .  S
C799        C800   1.408       .  A
C799        C804   1.405       .  A
C799        H806   1.083       .  S
C800        C801   1.413       .  A
C801        C802   1.393       .  A
C801       Br808   1.925       .  S
C802        C803   1.411       .  A
C802        H807   1.083       .  S
C803        C804   1.421       .  A
C809        C810   1.399       .  A
C809        C814   1.399       .  A
C809        H816   1.079       .  S
C810        C811   1.407       .  A
C811        C812   1.401       .  A
C811       Br818   1.917       .  S
C812        C813   1.405       .  A
C812        H817   1.083       .  S
C813        C814   1.413       .  A
C814       Br815   1.921       .  S
C819        C820   1.405       .  A
C819        C824   1.405       .  A
C819        H826   1.083       .  S
C820        C821   1.411       .  A
C821        C822   1.394       .  A
C822        C823   1.405       .  A
C823        C824   1.415       .  A
C829        C830   1.410       .  A
C829        C834   1.397       .  A
C829        H836   1.074       .  S
C830        C831   1.425       .  A
C831        C832   1.396       .  A
C831       Br838   1.927       .  S
C832        C833   1.397       .  A
C832        H837   1.084       .  S
C833        C834   1.409       .  A
C834       Br835   1.922       .  S
C839        C840   1.396       .  A
C839        C844   1.392       .  A
C839        H846   1.084       .  S
C840        C841   1.410       .  A
C841        C842   1.408       .  A
C841       Br848   1.916       .  S
C842        C843   1.405       .  A
C842        H847   1.083       .  S
C843        C844   1.417       .  A
C844       Br845   1.922       .  S
