geometry optimzed in LAMMPS
_audit_creation_date              2020-12-01 
_audit_creation_method            'lammps2cif' 
_symmetry_space_group_name_H-M    'P1' 
_symmetry_Int_Tables_number       1 
_symmetry_cell_setting            triclinic 
loop_ 
_symmetry_equiv_pos_as_xyz 
  x,y,z 
_cell_length_a                    72.43966279 
_cell_length_b                    72.462121828606 
_cell_length_c                    32.92898062983666 
_cell_angle_alpha                 90.24523221381752 
_cell_angle_beta                  89.92404948712324 
_cell_angle_gamma                 132.46980999378425 
loop_ 
_atom_site_label 
_atom_site_type_symbol 
_atom_site_fract_x 
_atom_site_fract_y 
_atom_site_fract_z 
_atom_site_charge 
C1          C  0.46481936  0.93068986  0.00035187     0.03200
C2          C  0.45928804  0.91806818  0.03714761    -0.13000
C3          C  0.44811575  0.89303165  0.03705190     0.00700
C4          C  0.44523469  0.88142805  0.50011052    -0.11500
C5          C  0.45066263  0.89380635  0.46330223     0.03200
C6          C  0.46042277  0.91834831  0.46364978    -0.10900
H7          H  0.46322476  0.92754357  0.06580887     0.08800
H8          H  0.43750888  0.86237275  0.49989366     0.06300
H9          H  0.46393201  0.92767952  0.43515512     0.06100
C10         C  0.41559182  0.47117615  0.99843105     0.03200
C11         C  0.41192329  0.47791171  0.03550570    -0.13000
C12         C  0.40452905  0.49141883  0.03633538     0.00700
C13         C  0.40066030  0.49817066  0.99971638    -0.11500
C14         C  0.40413805  0.49170769  0.46201848     0.03200
C15         C  0.41084876  0.47746247  0.46126306    -0.10900
H16         H  0.41493567  0.47271222  0.06384029     0.08800
H17         H  0.39472316  0.50847081  0.00036732     0.06300
H18         H  0.41356167  0.47231647  0.43243527     0.06100
N19         N  0.42433406  0.82712145  0.24960555    -0.36600
N20         N  0.40462538  0.78929350  0.18784008    -0.57100
N21         N  0.38942161  0.75283351  0.24958481    -0.36600
N22         N  0.40769225  0.79002140  0.31127005    -0.57100
C23         C  0.42423300  0.83837542  0.21706007     0.27000
C24         C  0.42538185  0.83860947  0.28316888     0.27000
C25         C  0.37666472  0.73788775  0.21694481     0.27000
C26         C  0.37810054  0.73824252  0.28285326     0.27000
C27         C  0.41686622  0.80964051  0.16391401     0.35600
C28         C  0.39848180  0.77065087  0.16391912     0.35600
C29         C  0.42093419  0.81080012  0.33462079     0.35600
C30         C  0.40247847  0.77175898  0.33476732     0.35600
C31         C  0.42564309  0.85752741  0.23000088    -0.21800
C32         C  0.42631460  0.85764446  0.27182908    -0.21800
C33         C  0.35721420  0.71348700  0.22950039    -0.21800
C34         C  0.35807851  0.71371938  0.27119455    -0.21800
C35         C  0.41860481  0.80391965  0.12466627    -0.22900
C36         C  0.40690517  0.77916131  0.12467319    -0.22900
C37         C  0.42445119  0.80579812  0.37303528    -0.22900
C38         C  0.41266815  0.78099437  0.37313985    -0.22900
C39         C  0.42408432  0.83245017  0.17606880    -0.18300
C40         C  0.42661381  0.83297912  0.32356740    -0.18300
C41         C  0.38616829  0.74633053  0.32328663    -0.18200
C42         C  0.38308267  0.74550307  0.17611347    -0.18200
H43         H  0.42619144  0.87012536  0.21125782     0.14700
H44         H  0.42748805  0.87037352  0.29161210     0.14700
H45         H  0.34386728  0.69718514  0.21057446     0.14700
H46         H  0.34550469  0.69762154  0.29066699     0.14700
H47         H  0.42685783  0.81612732  0.09852929     0.12900
H48         H  0.40431852  0.76847626  0.09858081     0.12900
H49         H  0.43364198  0.81843383  0.39877707     0.12900
H50         H  0.41104942  0.77072540  0.39885008     0.12900
H51         H  0.42617748  0.81408191  0.24885301     0.26200
H52         H  0.40644242  0.77128843  0.24890585     0.26200
O53         O  0.26408270  0.60834403  0.03426471    -0.85300
O54         O  0.31182324  0.65170066  0.05254700    -0.82400
C55         C  0.33532102  0.66774334  0.05481426     0.98200
O56         O  0.34839121  0.66719288  0.03025677    -0.82400
O57         O  0.33885293  0.62435051  0.04820725    -0.85000
C58         C  0.32664781  0.60132221  0.05159316     1.02700
O59         O  0.30805150  0.58539544  0.02879906    -0.77800
O60         O  0.27007338  0.58342851  0.05088449    -0.78000
C61         C  0.25950722  0.59161933  0.05695656     1.02600
O62         O  0.27684968  0.62026428  0.45107517    -0.85300
O63         O  0.32285216  0.66557595  0.47111466    -0.82400
C64         C  0.33751910  0.66844907  0.44529810     0.98200
O65         O  0.34271287  0.65499207  0.44721297    -0.82400
O66         O  0.33791613  0.61476682  0.46498109    -0.85000
C67         C  0.32124524  0.59804235  0.44058900     1.02600
O68         O  0.29883554  0.58787763  0.44547480    -0.77800
O69         O  0.25874791  0.58219016  0.46814890    -0.78000
C70         C  0.26002028  0.59702195  0.44533730     1.02600
Cr71       Cr  0.29502394  0.63532028  0.50301672     1.93700
Cr72       Cr  0.33958213  0.63885983  0.49852764     1.93200
Cr73       Cr  0.28576861  0.58735091  0.49881118     1.39100
O74         O  0.30676365  0.62046031  0.50049827    -1.23100
N75         N  0.35078228  0.55809505  0.24555836    -0.36600
N76         N  0.36773665  0.54333208  0.18505061    -0.57100
N77         N  0.37782224  0.52323935  0.24911603    -0.36600
N78         N  0.36314926  0.54043542  0.30971520    -0.57100
C79         C  0.35157313  0.56961260  0.21249711     0.27000
C80         C  0.34881782  0.56791522  0.27837860     0.27000
C81         C  0.38859591  0.52204816  0.21688492     0.27000
C82         C  0.38685282  0.52120230  0.28308053     0.27000
C83         C  0.35774362  0.54942616  0.16013270     0.35600
C84         C  0.37145129  0.53059728  0.16214426     0.35600
C85         C  0.35189330  0.54601790  0.33239254     0.35600
C86         C  0.36691907  0.52838971  0.33444662     0.35600
C87         C  0.34975789  0.58671487  0.22438378    -0.21800
C88         C  0.34788620  0.58555688  0.26593787    -0.21800
C89         C  0.40433487  0.51878038  0.23044771    -0.21800
C90         C  0.40326090  0.51827778  0.27223131    -0.21800
C91         C  0.35529902  0.54075667  0.12115802    -0.22900
C92         C  0.36387388  0.52871204  0.12244156    -0.22900
C93         C  0.34865756  0.53764034  0.37180533    -0.22900
C94         C  0.35812142  0.52642897  0.37308624    -0.22900
C95         C  0.35188096  0.56372302  0.17173563    -0.18300
C96         C  0.34648793  0.56045935  0.31905609    -0.18300
C97         C  0.37986021  0.52080591  0.32349849    -0.18200
C98         C  0.38371592  0.52270015  0.17556166    -0.18200
H99         H  0.34938144  0.59851114  0.20507543     0.14700
H100        H  0.34582287  0.59635461  0.28472191     0.14700
H101        H  0.41541605  0.51690891  0.21213385     0.14700
H102        H  0.41334086  0.51591527  0.29232906     0.14700
H103        H  0.34819152  0.54297570  0.09457148     0.12900
H104        H  0.36480482  0.51993047  0.09687188     0.12900
H105        H  0.34073506  0.53978838  0.39720530     0.12900
H106        H  0.35882935  0.51816298  0.39963027     0.12900
H107        H  0.34867248  0.54244053  0.24546914     0.26200
H108        H  0.36321658  0.52280135  0.24774148     0.26200
N109        N  0.10545097  0.52591351  0.24968278    -0.36600
N110        N  0.13931326  0.53476248  0.18670415    -0.57100
N111        N  0.17523681  0.54954309  0.24971515    -0.36600
N112        N  0.14034007  0.53770821  0.31256666    -0.57100
C113        C  0.09053917  0.51715107  0.21657855     0.27000
C114        C  0.09071634  0.51769205  0.28289609     0.27000
C115        C  0.18658588  0.54957818  0.21704992     0.27000
C116        C  0.18722518  0.55140652  0.28313764     0.27000
C117        C  0.12262177  0.53251607  0.16304410     0.35600
C118        C  0.15944527  0.54470622  0.16304046     0.35600
C119        C  0.12361259  0.53555348  0.33592212     0.35600
C120        C  0.16094378  0.54911246  0.33579571     0.35600
C121        C  0.06600607  0.50336732  0.22884094    -0.21800
C122        C  0.06610060  0.50362372  0.27070206    -0.21800
C123        C  0.20601638  0.55142303  0.22988055    -0.21800
C124        C  0.20640604  0.55255510  0.27160823    -0.21800
C125        C  0.13193062  0.54039722  0.12390982    -0.22900
C126        C  0.15522487  0.54811379  0.12393193    -0.22900
C127        C  0.13346084  0.54519732  0.37437890    -0.22900
C128        C  0.15714881  0.55389968  0.37423534    -0.22900
C129        C  0.09875140  0.52275226  0.17571469    -0.18300
C130        C  0.09914004  0.52401964  0.32372344    -0.18300
C131        C  0.18278114  0.55435842  0.32343408    -0.18200
C132        C  0.18150991  0.55050395  0.17603175    -0.18200
H133        H  0.04976447  0.49429118  0.20960424     0.14700
H134        H  0.04995197  0.49485253  0.28994941     0.14700
H135        H  0.21894727  0.55244112  0.21107749     0.14700
H136        H  0.21967671  0.55458531  0.29119737     0.14700
H137        H  0.12294541  0.54069750  0.09802257     0.12900
H138        H  0.16769587  0.55554941  0.09815537     0.12900
H139        H  0.12454847  0.54597554  0.39986523     0.12900
H140        H  0.17003898  0.56263288  0.39963252     0.12900
H141        H  0.12486384  0.53924565  0.24941956     0.26200
H142        H  0.16254060  0.55179512  0.24904600     0.26200
C143        C  0.01010146  0.50576974  0.49834870     0.03200
C144        C  0.02021901  0.50581576  0.46179373    -0.13000
C145        C  0.04091369  0.50783117  0.46227719     0.00700
C146        C  0.05151399  0.50994302  0.49962170    -0.11500
C147        C  0.04571641  0.51690237  0.03851984     0.03200
C148        C  0.02466089  0.51427576  0.03833420    -0.10900
H149        H  0.01189504  0.50408791  0.43303760     0.08800
H150        H  0.06789310  0.51217025  0.50019432     0.06300
H151        H  0.01614065  0.51259518  0.06683522     0.06100
C152        C  0.92214229  0.49299310  0.49988658     0.03200
C153        C  0.91099630  0.49050882  0.03580563    -0.13000
C154        C  0.88894150  0.48608150  0.03628394     0.00700
C155        C  0.87953356  0.48686059  0.50013024    -0.11500
C156        C  0.88961916  0.48761460  0.46309270     0.03200
C157        C  0.91085461  0.49058007  0.46311558    -0.10900
H158        H  0.91916836  0.49145040  0.06419161     0.08800
H159        H  0.86247366  0.48344900  0.50026213     0.06300
H160        H  0.91838139  0.49067145  0.43456400     0.06100
C161        C  0.44390968  0.41337512  0.00438247     0.03200
C162        C  0.44795558  0.40619988  0.46835739    -0.13000
C163        C  0.45770193  0.39482930  0.46962361     0.00700
C164        C  0.46272796  0.39000660  0.00727906    -0.11500
C165        C  0.45764888  0.39605614  0.04360719     0.03200
C166        C  0.44814805  0.40767640  0.04198842    -0.10900
H167        H  0.44479824  0.41062938  0.43927485     0.08800
H168        H  0.47046932  0.38141101  0.00840882     0.06300
H169        H  0.44423713  0.41245552  0.06991143     0.06100
N170        N  0.82164501  0.45959516  0.24975962    -0.36600
N171        N  0.78317712  0.43677585  0.31246068    -0.57100
N172        N  0.74470876  0.41295817  0.25031288    -0.36600
N173        N  0.78257176  0.43377760  0.18780600    -0.57100
C174        C  0.83552556  0.46513637  0.28311820     0.27000
C175        C  0.83509836  0.46336520  0.21689811     0.27000
C176        C  0.73021919  0.40110154  0.28357468     0.27000
C177        C  0.72992363  0.40010104  0.21755990     0.27000
C178        C  0.80372538  0.45142682  0.33640910     0.35600
C179        C  0.76329710  0.42697514  0.33659444     0.35600
C180        C  0.80279338  0.44708817  0.16327056     0.35600
C181        C  0.76258838  0.42350437  0.16364141     0.35600
C182        C  0.85847524  0.47349281  0.27114593    -0.21800
C183        C  0.85816933  0.47230663  0.22945069    -0.21800
C184        C  0.70587165  0.38064232  0.27177205    -0.21800
C185        C  0.70564756  0.38012192  0.23012152    -0.21800
C186        C  0.79678324  0.45085192  0.37603476    -0.22900
C187        C  0.77122351  0.43548654  0.37607800    -0.22900
C188        C  0.79554438  0.44495653  0.12327749    -0.22900
C189        C  0.77010387  0.43009827  0.12354083    -0.22900
C190        C  0.82825457  0.46307733  0.32409795    -0.18300
C191        C  0.82745015  0.45952174  0.17580326    -0.18300
C192        C  0.73742958  0.40657644  0.17661128    -0.18200
C193        C  0.73796013  0.40889671  0.32425976    -0.18200
H194        H  0.87384297  0.47963284  0.29042830     0.14700
H195        H  0.87321876  0.47734479  0.21056177     0.14700
H196        H  0.68981428  0.36757343  0.29112617     0.14700
H197        H  0.68938208  0.36656238  0.21130935     0.14700
H198        H  0.80875948  0.46002206  0.40246770     0.12900
H199        H  0.75973716  0.43060879  0.40239213     0.12900
H200        H  0.80727562  0.45291505  0.09652874     0.12900
H201        H  0.75842836  0.42431348  0.09706041     0.12900
H202        H  0.80481311  0.45533104  0.24933914     0.26200
H203        H  0.76280623  0.43032188  0.24980436     0.26200
N204        N  0.53565103  0.35443860  0.25162264    -0.36600
N205        N  0.51312946  0.36261439  0.19105291    -0.57100
N206        N  0.49452757  0.37457330  0.25566596    -0.36600
N207        N  0.51485920  0.36353366  0.31616111    -0.57100
C208        C  0.53873667  0.34577867  0.21832347     0.27000
C209        C  0.54004749  0.34671952  0.28433841     0.27000
C210        C  0.48275941  0.37391005  0.22307119     0.27000
C211        C  0.48319956  0.37370688  0.28934782     0.27000
C212        C  0.52677878  0.36080484  0.16622219     0.35600
C213        C  0.50536105  0.37177776  0.16835991     0.35600
C214        C  0.52994829  0.36281516  0.33860002     0.35600
C215        C  0.50728736  0.37222921  0.34094987     0.35600
C216        C  0.54526927  0.33246757  0.23005490    -0.21800
C217        C  0.54610702  0.33306877  0.27177282    -0.21800
C218        C  0.46398839  0.37307060  0.23616487    -0.21800
C219        C  0.46425006  0.37291179  0.27799648    -0.21800
C220        C  0.52735778  0.36845509  0.12743207    -0.22900
C221        C  0.51383798  0.37544362  0.12876541    -0.22900
C222        C  0.53174019  0.37079566  0.37794396    -0.22900
C223        C  0.51732683  0.37670996  0.37946122    -0.22900
C224        C  0.53775336  0.35124976  0.17770262    -0.18300
C225        C  0.54063288  0.35330292  0.32500364    -0.18300
C226        C  0.49031754  0.37485820  0.32998011    -0.18200
C227        C  0.48925149  0.37521324  0.18190900    -0.18200
H228        H  0.54943233  0.32361013  0.21057766     0.14700
H229        H  0.55103459  0.32475585  0.29067282     0.14700
H230        H  0.45143967  0.37268704  0.21751414     0.14700
H231        H  0.45198026  0.37241665  0.29778920     0.14700
H232        H  0.53643091  0.36881044  0.10090521     0.12900
H233        H  0.51043170  0.38222117  0.10332626     0.12900
H234        H  0.54205388  0.37188866  0.40309711     0.12900
H235        H  0.51444949  0.38339487  0.40595883     0.12900
H236        H  0.53400754  0.36759285  0.25202984     0.26200
H237        H  0.51097244  0.37808942  0.25481100     0.26200
O238        O  0.60303726  0.28394706  0.46815002    -0.85300
O239        O  0.64377963  0.33234030  0.44560329    -0.82400
C240        C  0.65838444  0.35576068  0.44253548     0.98200
O241        O  0.65655064  0.36819598  0.46647988    -0.82400
O242        O  0.61138189  0.35405010  0.44996242    -0.85000
C243        C  0.58803697  0.33989700  0.44641973     1.02700
O244        O  0.57363499  0.32199032  0.47086709    -0.77800
O245        O  0.57659472  0.28731333  0.44924523    -0.78000
C246        C  0.58562365  0.27747173  0.44485999     1.02600
O247        O  0.61551753  0.29854518  0.05154217    -0.85300
O248        O  0.65876198  0.34517717  0.02947215    -0.82400
C249        C  0.66032363  0.35942171  0.05453622     0.98200
O250        O  0.64546620  0.36286665  0.05239525    -0.82400
O251        O  0.60226446  0.35321710  0.03555035    -0.85000
C252        C  0.58535096  0.33565786  0.05882898     1.02600
O253        O  0.57720604  0.31396874  0.05426484    -0.77800
O254        O  0.57652076  0.27687356  0.03333802    -0.78000
C255        C  0.59245537  0.28037993  0.05676202     1.02600
Cr256      Cr  0.62897531  0.31597406  0.49840677     1.93700
Cr257      Cr  0.62781859  0.35704363  0.00130251     1.93200
Cr258      Cr  0.57865173  0.30208161  0.50184501     1.39100
O259        O  0.61175993  0.32516538  0.50041913    -1.23100
N260        N  0.55089889  0.19696808  0.24950240    -0.36600
N261        N  0.54163504  0.16372524  0.18500613    -0.57100
N262        N  0.52729062  0.12699154  0.24402231    -0.36600
N263        N  0.53825457  0.16110759  0.30867393    -0.57100
C264        C  0.56274073  0.21292732  0.21794381     0.27000
C265        C  0.55953321  0.21104938  0.28365786     0.27000
C266        C  0.52869483  0.11719288  0.21038752     0.27000
C267        C  0.52838410  0.11644550  0.27652543     0.27000
C268        C  0.54579411  0.18170291  0.16247971     0.35600
C269        C  0.53207927  0.14446115  0.15947980     0.35600
C270        C  0.53949818  0.17683828  0.33349785     0.35600
C271        C  0.52846750  0.14065814  0.33082278     0.35600
C272        C  0.57879290  0.23740552  0.23208217    -0.21800
C273        C  0.57676287  0.23622010  0.27363425    -0.21800
C274        C  0.53009311  0.09975327  0.22159853    -0.21800
C275        C  0.53001420  0.09935975  0.26341449    -0.21800
C276        C  0.53884016  0.17387833  0.12246067    -0.22900
C277        C  0.53014047  0.15022708  0.12054243    -0.22900
C278        C  0.53025889  0.16626702  0.37153508    -0.22900
C279        C  0.52339232  0.14337541  0.36992738    -0.22900
C280        C  0.55830611  0.20601024  0.17661611    -0.18300
C281        C  0.55172218  0.20173501  0.32353036    -0.18300
C282        C  0.52645748  0.12077904  0.31755592    -0.18200
C283        C  0.52791895  0.12307427  0.16994132    -0.18200
H284        H  0.59067353  0.25437368  0.21428650     0.14700
H285        H  0.58690937  0.25210297  0.29410448     0.14700
H286        H  0.53111913  0.08852796  0.20174686     0.14700
H287        H  0.53080885  0.08763657  0.28203409     0.14700
H288        H  0.54057418  0.18440689  0.09708664     0.12900
H289        H  0.52388794  0.13892410  0.09335305     0.12900
H290        H  0.52944895  0.17458339  0.39804007     0.12900
H291        H  0.51605452  0.13045870  0.39496086     0.12900
H292        H  0.53590697  0.17773834  0.24750202     0.26200
H293        H  0.52322241  0.13826200  0.24477725     0.26200
C294        C  0.50187211  0.03052500  0.49490645     0.03200
C295        C  0.50728575  0.04395658  0.03104990    -0.13000
C296        C  0.51487231  0.06756412  0.02966521     0.00700
C297        C  0.51805884  0.07825051  0.49247020    -0.11500
C298        C  0.51373252  0.06568543  0.45615834     0.03200
C299        C  0.50517144  0.04164133  0.45743016    -0.10900
H300        H  0.50415214  0.03534483  0.06019047     0.08800
H301        H  0.52419337  0.09665061  0.49158640     0.06300
H302        H  0.50123257  0.03169396  0.42933127     0.06100
C303        C  0.54431021  0.11355921  0.37242003    -0.09100
C304        C  0.52343591  0.10445016  0.34910639     0.07100
C305        C  0.49979100  0.08113485  0.35840841    -0.02900
C306        C  0.49704503  0.06792480  0.39237033    -0.07300
C307        C  0.51771125  0.07777954  0.41712929     0.06200
C308        C  0.54162194  0.10034253  0.40616506    -0.02400
Br309      Br  0.57105357  0.11383322  0.43651992    -0.02100
H310        H  0.56260455  0.13137590  0.36499940     0.10100
H311        H  0.47860543  0.05052179  0.40051533     0.08100
Br312      Br  0.47071548  0.06765537  0.32700044    -0.02500
C313        C  0.50046824  0.08802026  0.12065688    -0.09100
C314        C  0.52452575  0.10731916  0.13636607     0.07100
C315        C  0.54531812  0.11309319  0.11739313    -0.02900
C316        C  0.54183045  0.09952325  0.08318274    -0.07300
C317        C  0.51780134  0.08037680  0.06728520     0.06200
C318        C  0.49702328  0.07469391  0.08608548    -0.02400
Br319      Br  0.46393791  0.05004689  0.06390814    -0.02100
H320        H  0.48448291  0.08393797  0.13450927     0.10100
H321        H  0.55792603  0.10424752  0.06841815     0.08100
Br322      Br  0.57879261  0.14007825  0.13623812    -0.02500
C323        C  0.54853958  0.23046097  0.35724132    -0.09100
C324        C  0.55895641  0.21971604  0.35644929     0.07100
C325        C  0.57796340  0.22809609  0.38426819    -0.02900
C326        C  0.58586952  0.24650472  0.41275358    -0.07300
C327        C  0.57571857  0.25761549  0.41378098     0.06200
C328        C  0.55683696  0.24941280  0.38515953    -0.02400
Br329      Br  0.54223649  0.26370434  0.38048007    -0.02100
H330        H  0.53434810  0.22453352  0.33513749     0.10100
H331        H  0.60053656  0.25247150  0.43374480     0.08100
Br332      Br  0.59504505  0.21631391  0.38274905    -0.02500
C333        C  0.59758785  0.25499245  0.09546141    -0.09100
C334        C  0.58404892  0.26216395  0.08875880     0.07100
C335        C  0.56235010  0.25115046  0.11180066    -0.02900
C336        C  0.55440485  0.23301897  0.14051906    -0.07300
C337        C  0.56763244  0.22552864  0.14641200     0.06200
C338        C  0.58942039  0.23663469  0.12390342    -0.02400
Br339      Br  0.60840547  0.22720199  0.13098145    -0.02100
H340        H  0.61423306  0.26326578  0.07785830     0.10100
H341        H  0.53777506  0.22461297  0.15827696     0.08100
Br342      Br  0.54336867  0.26071523  0.10695351    -0.02500
C343        C  0.54766006  0.32132714  0.09602017    -0.09100
C344        C  0.57366432  0.33998141  0.08975712     0.07100
C345        C  0.58761985  0.36234636  0.11260351    -0.02900
C346        C  0.57551428  0.36581703  0.14040086    -0.07300
C347        C  0.54954589  0.34732570  0.14606893     0.06200
C348        C  0.53559664  0.32486979  0.12377637    -0.02400
Br349      Br  0.50017250  0.29840586  0.13098690    -0.02100
H350        H  0.53659010  0.30399129  0.07889607     0.10100
H351        H  0.58646342  0.38288884  0.15822521     0.08100
Br352      Br  0.62337383  0.38796025  0.10958632    -0.02500
C353        C  0.55077979  0.32523981  0.40807794    -0.09100
C354        C  0.57684960  0.34395477  0.41419503     0.07100
C355        C  0.59099498  0.36561917  0.38951764    -0.02900
C356        C  0.57880635  0.36822444  0.36054795    -0.07300
C357        C  0.55285696  0.34961200  0.35531978     0.06200
C358        C  0.53883835  0.32786767  0.37885548    -0.02400
Br359      Br  0.50343536  0.30108781  0.37144304    -0.02100
H360        H  0.53947065  0.30825640  0.42588896     0.10100
H361        H  0.58958831  0.38491563  0.34202371     0.08100
Br362      Br  0.62669425  0.39260726  0.39328006    -0.02500
C363        C  0.68364028  0.38834028  0.38959275    -0.09100
C364        C  0.67865042  0.36905254  0.41228638     0.07100
C365        C  0.69379713  0.36349507  0.40680097    -0.02900
C366        C  0.71344485  0.37713403  0.37884688    -0.07300
C367        C  0.71816323  0.39615020  0.35581248     0.06200
C368        C  0.70299042  0.40161693  0.36107860    -0.02400
Br369      Br  0.70776496  0.42669857  0.32940332    -0.02100
H370        H  0.67217995  0.39280784  0.39358127     0.10100
H371        H  0.72496449  0.37274402  0.37470102     0.08100
Br372      Br  0.68941111  0.33842570  0.43798156    -0.02500
C373        C  0.68692931  0.35928630  0.10123651    -0.09100
C374        C  0.67992702  0.37191968  0.08602984     0.07100
C375        C  0.69255057  0.39635632  0.10002240    -0.02900
C376        C  0.71096682  0.40716985  0.12997908    -0.07300
C377        C  0.71762622  0.39434212  0.14530004     0.06200
C378        C  0.70581323  0.37041705  0.13029694    -0.02400
Br379      Br  0.71520604  0.35255517  0.14820845    -0.02100
H380        H  0.67774161  0.34067812  0.09034758     0.10100
H381        H  0.72059891  0.42591733  0.14072490     0.08100
Br382      Br  0.68752200  0.41688245  0.07662633    -0.02500
C383        C  0.45167697  0.36591103  0.09117192    -0.09100
C384        C  0.46306085  0.39062728  0.08285440     0.07100
C385        C  0.48112764  0.40987107  0.11017308    -0.02900
C386        C  0.48852903  0.40433834  0.14368402    -0.07300
C387        C  0.47809157  0.37983336  0.15052988     0.06200
C388        C  0.45891537  0.36040984  0.12486695    -0.02400
Br389      Br  0.44287379  0.32629507  0.13407360    -0.02100
H390        H  0.43759739  0.35093525  0.07068357     0.10100
H391        H  0.50329422  0.41935625  0.16340212     0.08100
Br392      Br  0.49801728  0.44427203  0.10117065    -0.02500
C393        C  0.49019127  0.40369302  0.37113619    -0.09100
C394        C  0.47968239  0.37923076  0.36317206     0.07100
C395        C  0.46102569  0.35975124  0.38920312    -0.02900
C396        C  0.45365355  0.36504589  0.42322206    -0.07300
C397        C  0.46455565  0.38961900  0.43175152     0.06200
C398        C  0.48286999  0.40903262  0.40517615    -0.02400
Br399      Br  0.50011201  0.44342931  0.41592987    -0.02100
H400        H  0.50484532  0.41882287  0.35163802     0.10100
H401        H  0.43958906  0.34998661  0.44341613     0.08100
Br402      Br  0.44556350  0.32578923  0.37985735    -0.02500
C403        C  0.86422078  0.45858925  0.09518852    -0.09100
C404        C  0.87588925  0.48108828  0.07486468     0.07100
C405        C  0.87333747  0.49746646  0.09004098    -0.02900
C406        C  0.85850245  0.49077356  0.12427261    -0.07300
C407        C  0.84593191  0.46775863  0.14346452     0.06200
C408        C  0.84917206  0.45176982  0.12912145    -0.02400
Br409      Br  0.83237130  0.41994258  0.15373953    -0.02100
H410        H  0.86603316  0.44585209  0.08364389     0.10100
H411        H  0.85604816  0.50313048  0.13514194     0.08100
Br412      Br  0.88959057  0.52898137  0.06476762    -0.02500
C413        C  0.86545837  0.46141869  0.40230071    -0.09100
C414        C  0.87663113  0.48326972  0.42469409     0.07100
C415        C  0.87388190  0.49976685  0.41149134    -0.02900
C416        C  0.85883934  0.49351824  0.37771019    -0.07300
C417        C  0.84657950  0.47098226  0.35665517     0.06200
C418        C  0.85055550  0.45522831  0.36845155    -0.02400
Br419      Br  0.83538335  0.42472920  0.33980469    -0.02100
H420        H  0.86767555  0.44873541  0.41197603     0.10100
H421        H  0.85620751  0.50592990  0.36839761     0.08100
Br422      Br  0.89079006  0.53116076  0.43834685    -0.02500
C423        C  0.96964168  0.48697889  0.98098498    -0.09100
C424        C  0.98774760  0.50278716  0.49811591     0.07100
C425        C  0.98740604  0.51957684  0.47747930    -0.02900
C426        C  0.96582863  0.51596251  0.47820662    -0.07300
C427        C  0.94445507  0.49593556  0.49959489     0.06200
C428        C  0.94718802  0.48173060  0.97992651    -0.02400
Br429      Br  0.91879117  0.45114285  0.95435746    -0.02100
H430        H  0.97045583  0.47403343  0.96674541     0.10100
H431        H  0.96586786  0.52911763  0.46257528     0.08100
Br432      Br  0.01627830  0.54857567  0.45001800    -0.02500
C433        C  0.07064999  0.49752636  0.38134902    -0.09100
C434        C  0.08144092  0.51811191  0.35599211     0.07100
C435        C  0.07711303  0.53402473  0.36396813    -0.02900
C436        C  0.06271141  0.52958320  0.39753417    -0.07300
C437        C  0.05279652  0.50962243  0.42396131     0.06200
C438        C  0.05643186  0.49318654  0.41514076    -0.02400
Br439      Br  0.04235928  0.46455730  0.44816682    -0.02100
H440        H  0.07388706  0.48519098  0.37539838     0.10100
H441        H  0.06025723  0.54247491  0.40414666     0.08100
Br442      Br  0.09211886  0.56310655  0.33170139    -0.02500
C443        C  0.08176425  0.53820512  0.13782006    -0.09100
C444        C  0.08182676  0.51911425  0.14421631     0.07100
C445        C  0.06793697  0.49825048  0.11801503    -0.02900
C446        C  0.05553463  0.49746174  0.08455140    -0.07300
C447        C  0.05640938  0.51709790  0.07698987     0.06200
C448        C  0.06912904  0.53731338  0.10456884    -0.02400
Br449      Br  0.07155680  0.56507371  0.09642530    -0.02100
H450        H  0.09245563  0.55434879  0.15783357     0.10100
H451        H  0.04561418  0.48171277  0.06377043     0.08100
Br452      Br  0.06597538  0.47080637  0.12627051    -0.02500
C453        C  0.35833518  0.59419525  0.36502901    -0.09100
C454        C  0.33966866  0.56989828  0.34989355     0.07100
C455        C  0.31487448  0.55531192  0.36316626    -0.02900
C456        C  0.30913740  0.56499902  0.39200231    -0.07300
C457        C  0.32786788  0.58927416  0.40792520     0.06200
C458        C  0.35270425  0.60410272  0.39348400    -0.02400
Br459      Br  0.37979544  0.63834714  0.40936778    -0.02100
H460        H  0.37736836  0.60561550  0.35415215     0.10100
H461        H  0.29000885  0.55328724  0.40251096     0.08100
Br462      Br  0.28844530  0.52205115  0.34289386    -0.02500
C463        C  0.31494581  0.57166692  0.10558363    -0.09100
C464        C  0.33388457  0.59243968  0.08212448     0.07100
C465        C  0.35889724  0.60353685  0.08752160    -0.02900
C466        C  0.36442834  0.59357311  0.11607264    -0.07300
C467        C  0.34540753  0.57294659  0.13981351     0.06200
C468        C  0.32055114  0.56211833  0.13459829    -0.02400
Br469      Br  0.29366035  0.53451664  0.16687314    -0.02100
H470        H  0.29569364  0.56305372  0.10176636     0.10100
H471        H  0.38362411  0.60208417  0.12016167     0.08100
Br472      Br  0.38593255  0.63148414  0.05570855    -0.02500
C473        C  0.21931524  0.56085849  0.41380692    -0.09100
C474        C  0.24091039  0.58660011  0.41294505     0.07100
C475        C  0.24344415  0.60132600  0.38119457    -0.02900
C476        C  0.22438635  0.59031625  0.35233022    -0.07300
C477        C  0.20280877  0.56481535  0.35396182     0.06200
C478        C  0.20046560  0.54995175  0.38465546    -0.02400
Br479      Br  0.17204111  0.51466474  0.38766568    -0.02100
H480        H  0.21689499  0.54903062  0.43743417     0.10100
H481        H  0.22634606  0.60174601  0.32838275     0.08100
Br482      Br  0.27240008  0.63623283  0.37388171    -0.02500
C483        C  0.22062983  0.55492961  0.09189611    -0.09100
C484        C  0.24068266  0.58097272  0.08952584     0.07100
C485        C  0.24149704  0.59658595  0.11675197    -0.02900
C486        C  0.22208138  0.58623403  0.14448286    -0.07300
C487        C  0.20162203  0.56035638  0.14585468     0.06200
C488        C  0.20111743  0.54457602  0.11974128    -0.02400
Br489      Br  0.17421078  0.50894546  0.12130963    -0.02100
H490        H  0.21978430  0.54267688  0.07129642     0.10100
H491        H  0.22291888  0.59844675  0.16519085     0.08100
Br492      Br  0.26925800  0.63205357  0.11893452    -0.02500
C493        C  0.35186581  0.71989483  0.12114909    -0.09100
C494        C  0.37149087  0.72591832  0.14439881     0.07100
C495        C  0.37941475  0.71298020  0.13787367    -0.02900
C496        C  0.36768635  0.69427163  0.10808951    -0.07300
C497        C  0.34767950  0.68787506  0.08530159     0.06200
C498        C  0.33989861  0.70100458  0.09181302    -0.02400
Br499      Br  0.31404727  0.69499125  0.06008183    -0.02100
H500        H  0.34581576  0.72992137  0.12599540     0.10100
H501        H  0.37386211  0.68435944  0.10325919     0.08100
Br502      Br  0.40603455  0.72027115  0.16913581    -0.02500
C503        C  0.35650610  0.72265936  0.38053900    -0.09100
C504        C  0.37470634  0.72704426  0.35543837     0.07100
C505        C  0.38024285  0.71190043  0.35923094    -0.02900
C506        C  0.36794035  0.69301366  0.38850533    -0.07300
C507        C  0.34960678  0.68845635  0.41404678     0.06200
C508        C  0.34373477  0.70348882  0.40926626    -0.02400
Br509      Br  0.31793394  0.69879363  0.43887450    -0.02100
H510        H  0.35175102  0.73389350  0.37695503     0.10100
H511        H  0.37275730  0.68179912  0.39108563     0.08100
Br512      Br  0.40427342  0.71619763  0.32476772    -0.02500
C513        C  0.38103164  0.48119182  0.39708956    -0.09100
C514        C  0.40010955  0.49950327  0.42398908     0.07100
C515        C  0.41373789  0.52494622  0.41577790    -0.02900
C516        C  0.40726086  0.53156003  0.38250431    -0.07300
C517        C  0.38750414  0.51318143  0.35662709     0.06200
C518        C  0.37472195  0.48786198  0.36355676    -0.02400
Br519      Br  0.34786974  0.46179257  0.32895432    -0.02100
H520        H  0.37045569  0.46159472  0.40295626     0.10100
H521        H  0.41749662  0.55111506  0.37697850     0.08100
Br522      Br  0.44179407  0.55136181  0.44844637    -0.02500
C523        C  0.41564027  0.52476369  0.08241763    -0.09100
C524        C  0.40137604  0.49918942  0.07529140     0.07100
C525        C  0.38343410  0.48161032  0.10422226    -0.02900
C526        C  0.37895266  0.48972893  0.13825475    -0.07300
C527        C  0.39223402  0.51519036  0.14401370     0.06200
C528        C  0.41133870  0.53285302  0.11660355    -0.02400
Br529      Br  0.43114485  0.56809332  0.12371766    -0.02100
H530        H  0.42975909  0.53844819  0.06071956     0.10100
H531        H  0.36421001  0.47605618  0.15922067     0.08100
Br532      Br  0.36297133  0.44625974  0.09692095    -0.02500
C533        C  0.45105304  0.45112733  0.51968308    -0.09100
C534        C  0.43611878  0.42767754  0.00271169     0.07100
C535        C  0.41449183  0.41875515  0.98158826    -0.02900
C536        C  0.40848722  0.43348734  0.97943365    -0.07300
C537        C  0.42356857  0.45698780  0.99859106     0.06200
C538        C  0.44498541  0.46575601  0.51740515    -0.00200
Br539      Br  0.46823996  0.49886073  0.54021146    -0.02100
H540        H  0.46830785  0.45869836  0.53449253     0.10100
H541        H  0.39157259  0.42625494  0.96378070     0.08100
Br542      Br  0.39170876  0.38594577  0.95769031    -0.02500
C543        C  0.41979348  0.85811585  0.41760230    -0.09100
C544        C  0.44466641  0.88020582  0.42479648     0.07100
C545        C  0.46338113  0.88766328  0.39684607    -0.02900
C546        C  0.45705431  0.87266920  0.36286450    -0.07300
C547        C  0.43231471  0.85013305  0.35663999     0.06200
C548        C  0.41352802  0.84309329  0.38390635    -0.02400
Br549      Br  0.37924365  0.81259679  0.37715679    -0.02100
H550        H  0.40528046  0.85221738  0.43891875     0.10100
H551        H  0.47160995  0.87802170  0.34219142     0.08100
Br552      Br  0.49804132  0.91670002  0.40576341    -0.02500
C553        C  0.41101119  0.84367085  0.11869932    -0.09100
C554        C  0.43026370  0.85011333  0.14380373     0.07100
C555        C  0.45518627  0.87198936  0.13565651    -0.02900
C556        C  0.46061991  0.88648954  0.10170490    -0.07300
C557        C  0.44147466  0.87933486  0.07544739     0.06200
C558        C  0.41642526  0.85806383  0.08468820    -0.02400
Br559      Br  0.38901278  0.84787580  0.05174544    -0.02100
H560        H  0.39177396  0.82694492  0.12496266     0.10100
H561        H  0.47992850  0.90279683  0.09480563     0.08100
Br562      Br  0.48243581  0.88173452  0.16842432    -0.02500
C563        C  0.49629625  0.97495964  0.47827534    -0.09100
C564        C  0.47457339  0.95627286  0.50049255     0.07100
C565        C  0.46266538  0.96292604  0.02033226    -0.02900
C566        C  0.47250818  0.98740836  0.01859405    -0.07300
C567        C  0.49302689  0.00521171  0.49653810     0.06200
C568        C  0.50559256  0.99925587  0.47617494    -0.02400
Br569      Br  0.53607855  0.02371561  0.44661056    -0.02100
H570        H  0.50616802  0.97064184  0.46263718     0.10100
H571        H  0.46263268  0.99189184  0.03364407     0.08100
Br572      Br  0.43141753  0.93873800  0.04818947    -0.02500
C573        C  0.46494247  0.93058864  0.50065193     0.03200
C574        C  0.46007339  0.91815897  0.53741274    -0.13000
C575        C  0.44961764  0.89335109  0.53719799     0.00700
C576        C  0.44359862  0.88096678  0.00006534    -0.11500
C577        C  0.44995792  0.89360930  0.96320656     0.03200
C578        C  0.46042668  0.91842625  0.96342879    -0.10900
H579        H  0.46392660  0.92757174  0.56610945     0.08800
H580        H  0.43530008  0.86170672  0.99999756     0.06300
H581        H  0.46460375  0.92796536  0.93489060     0.06100
C582        C  0.41481315  0.47054592  0.49782248     0.03200
C583        C  0.41104317  0.47709205  0.53502886    -0.13000
C584        C  0.40388028  0.49081765  0.53608659     0.00700
C585        C  0.40057642  0.49815576  0.49955532    -0.11500
C586        C  0.40406731  0.49150682  0.96228382     0.03200
C587        C  0.41116141  0.47759729  0.96175492    -0.10900
H588        H  0.41385620  0.47162105  0.56325204     0.08800
H589        H  0.39492218  0.50870788  0.50033861     0.06300
H590        H  0.41375423  0.47228539  0.93299644     0.06100
N591        N  0.42628267  0.82770315  0.74999238    -0.36600
N592        N  0.40736451  0.79021825  0.68821465    -0.57100
N593        N  0.39133799  0.75348676  0.74978806    -0.36600
N594        N  0.40908604  0.79039552  0.81152533    -0.57100
C595        C  0.42631512  0.83894174  0.71727341     0.27000
C596        C  0.42668284  0.83887393  0.78338878     0.27000
C597        C  0.37862041  0.73871097  0.71701014     0.27000
C598        C  0.37967529  0.73880565  0.78284427     0.27000
C599        C  0.42002135  0.81066743  0.66448351     0.35600
C600        C  0.40134560  0.77162004  0.66438136     0.35600
C601        C  0.42197527  0.81105392  0.83508858     0.35600
C602        C  0.40377119  0.77209347  0.83503612     0.35600
C603        C  0.42711026  0.85773587  0.72995345    -0.21800
C604        C  0.42732354  0.85768354  0.77179565    -0.21800
C605        C  0.35883548  0.71432993  0.72926392    -0.21800
C606        C  0.35947792  0.71439415  0.77093591    -0.21800
C607        C  0.42226299  0.80508705  0.62546495    -0.22900
C608        C  0.41033027  0.78025594  0.62539096    -0.22900
C609        C  0.42515794  0.80594163  0.87367992    -0.22900
C610        C  0.41356445  0.78118664  0.87363837    -0.22900
C611        C  0.42679003  0.83328669  0.67640252    -0.18300
C612        C  0.42764676  0.83320140  0.82388633    -0.18300
C613        C  0.38756482  0.74672156  0.82332427    -0.18200
C614        C  0.38542640  0.74642286  0.67634098    -0.18200
H615        H  0.42758188  0.87022715  0.71103484     0.14700
H616        H  0.42799809  0.87014706  0.79142898     0.14700
H617        H  0.34543899  0.69814153  0.71015830     0.14700
H618        H  0.34662945  0.69826605  0.79022773     0.14700
H619        H  0.43087566  0.81740148  0.59946776     0.12900
H620        H  0.40789490  0.76959378  0.59939178     0.12900
H621        H  0.43400435  0.81846427  0.89959215     0.12900
H622        H  0.41173589  0.77083103  0.89940633     0.12900
H623        H  0.42847249  0.81491679  0.74954496     0.26200
H624        H  0.40852786  0.77184020  0.74938894     0.26200
O625        O  0.26456228  0.60856660  0.53583994    -0.85300
O626        O  0.31241429  0.65181642  0.55473650    -0.82400
C627        C  0.33592662  0.66778730  0.55687760     0.98200
O628        O  0.34892042  0.66723538  0.53216751    -0.82400
O629        O  0.33923949  0.62419175  0.54921194    -0.85000
C630        C  0.32679362  0.60108151  0.55229693     1.02700
O631        O  0.30831679  0.58540686  0.52918496    -0.77800
O632        O  0.27029863  0.58339089  0.55187959    -0.78000
C633        C  0.25971220  0.59156606  0.55813725     1.02600
O634        O  0.27610631  0.61941701  0.94935094    -0.85300
O635        O  0.32214253  0.66489322  0.96871746    -0.82400
C636        C  0.33693316  0.66773941  0.94323361     0.98200
O637        O  0.34205157  0.65423816  0.94544090    -0.82400
O638        O  0.33733363  0.61418300  0.96431266    -0.85000
C639        C  0.32061961  0.59716325  0.94027754     1.02600
O640        O  0.29827110  0.58721839  0.94486843    -0.77800
O641        O  0.25803797  0.58143210  0.96693665    -0.78000
C642        C  0.25920821  0.59615452  0.94392769     1.02600
Cr643      Cr  0.29439463  0.63486764  0.00105460     1.93700
Cr644      Cr  0.33903945  0.63855377  0.99715323     1.93200
Cr645      Cr  0.28529697  0.58698319  0.99796145     1.39100
O646        O  0.30621039  0.62008573  0.99908044    -1.23100
N647        N  0.34810056  0.55516193  0.74587500    -0.36600
N648        N  0.36550759  0.54087231  0.68546627    -0.57100
N649        N  0.37593347  0.52108402  0.74931952    -0.36600
N650        N  0.36049825  0.53748152  0.80980310    -0.57100
C651        C  0.34928220  0.56701101  0.71296317     0.27000
C652        C  0.34640271  0.56511409  0.77880750     0.27000
C653        C  0.38712792  0.52044188  0.71715423     0.27000
C654        C  0.38523157  0.51943065  0.78331140     0.27000
C655        C  0.35530777  0.54675735  0.66061217     0.35600
C656        C  0.36931281  0.52821407  0.66255967     0.35600
C657        C  0.34884114  0.54262146  0.83237676     0.35600
C658        C  0.36415378  0.52529583  0.83436008     0.35600
C659        C  0.34793405  0.58442623  0.72504798    -0.21800
C660        C  0.34603367  0.58317717  0.76661698    -0.21800
C661        C  0.40346166  0.51796628  0.73076599    -0.21800
C662        C  0.40230333  0.51737624  0.77255869    -0.21800
C663        C  0.35274714  0.53796756  0.62169502    -0.22900
C664        C  0.36152663  0.52610508  0.62293723    -0.22900
C665        C  0.34508887  0.53369627  0.87150541    -0.22900
C666        C  0.35476094  0.52267913  0.87275086    -0.22900
C667        C  0.34965045  0.56122443  0.67217452    -0.18300
C668        C  0.34385855  0.55743608  0.81936559    -0.18300
C669        C  0.37780185  0.51849899  0.82361418    -0.18200
C670        C  0.38200293  0.52077784  0.67587008    -0.18200
H671        H  0.34796141  0.59654110  0.70587142     0.14700
H672        H  0.34435024  0.59419956  0.78561216     0.14700
H673        H  0.41495080  0.51663389  0.71247515     0.14700
H674        H  0.41271202  0.51546396  0.79271694     0.14700
H675        H  0.34553004  0.54008568  0.59515137     0.12900
H676        H  0.36254705  0.51738504  0.59737388     0.12900
H677        H  0.33679601  0.53546795  0.89677377     0.12900
H678        H  0.35532133  0.51421601  0.89914748     0.12900
H679        H  0.34564556  0.53929354  0.74560400     0.26200
H680        H  0.36088337  0.51997018  0.74786336     0.26200
N681        N  0.10593344  0.52952710  0.74875455    -0.36600
N682        N  0.13866310  0.53535606  0.68603582    -0.57100
N683        N  0.17398097  0.54906582  0.74896195    -0.36600
N684        N  0.14033586  0.54042132  0.81162671    -0.57100
C685        C  0.09069268  0.52001578  0.71594831     0.27000
C686        C  0.09165155  0.52276028  0.78215763     0.27000
C687        C  0.18510605  0.54862157  0.71644623     0.27000
C688        C  0.18566360  0.55059831  0.78255023     0.27000
C689        C  0.12201886  0.53306109  0.66215582     0.35600
C690        C  0.15852081  0.54447298  0.66222009     0.35600
C691        C  0.12457551  0.53992794  0.83478057     0.35600
C692        C  0.16065295  0.55061965  0.83490121     0.35600
C693        C  0.06644410  0.50736051  0.72859441    -0.21800
C694        C  0.06704644  0.50906156  0.77036805    -0.21800
C695        C  0.20404246  0.54975747  0.72954119    -0.21800
C696        C  0.20435570  0.55094198  0.77126631    -0.21800
C697        C  0.13106940  0.54008884  0.62273850    -0.22900
C698        C  0.15419642  0.54739867  0.62283889    -0.22900
C699        C  0.13475018  0.54945159  0.87313594    -0.22900
C700        C  0.15760704  0.55627303  0.87317755    -0.22900
C701        C  0.09834374  0.52384792  0.67483594    -0.18300
C702        C  0.10045272  0.52960077  0.82277509    -0.18300
C703        C  0.18164109  0.55423594  0.82270023    -0.18200
C704        C  0.18034834  0.54980551  0.67533866    -0.18200
H705        H  0.05003933  0.49802776  0.70965535     0.14700
H706        H  0.05120977  0.50128622  0.78980718     0.14700
H707        H  0.21673161  0.55031039  0.71091586     0.14700
H708        H  0.21736025  0.55261041  0.79100468     0.14700
H709        H  0.12202323  0.54009959  0.59661444     0.12900
H710        H  0.16642537  0.55410710  0.59688530     0.12900
H711        H  0.12654609  0.55126634  0.89850673     0.12900
H712        H  0.17046298  0.56438194  0.89858463     0.12900
H713        H  0.12534066  0.54221128  0.74794505     0.26200
H714        H  0.16177190  0.55193586  0.74806130     0.26200
C715        C  0.01408420  0.51293973  0.00135628     0.03200
C716        C  0.02469564  0.51413722  0.96453185    -0.13000
C717        C  0.04559414  0.51653774  0.96439548     0.00700
C718        C  0.05610317  0.51811583  0.00150518    -0.11500
C719        C  0.04162129  0.50992153  0.53623456     0.03200
C720        C  0.02083434  0.50768360  0.53550709    -0.10900
H721        H  0.01646783  0.51285678  0.93596031     0.08800
H722        H  0.07243592  0.52026213  0.00160730     0.06300
H723        H  0.01309280  0.50754247  0.56382430     0.06100
C724        C  0.92229678  0.49328764  0.99879737     0.03200
C725        C  0.91199660  0.49244721  0.53676115    -0.13000
C726        C  0.89055030  0.48911929  0.53703954     0.00700
C727        C  0.87819945  0.48451808  0.99953952    -0.11500
C728        C  0.88925401  0.48718866  0.96239052     0.03200
C729        C  0.91130160  0.49156403  0.96210007    -0.10900
H730        H  0.92047972  0.49411593  0.56528464     0.08800
H731        H  0.86077994  0.48043675  0.99981415     0.06300
H732        H  0.91985821  0.49360801  0.93340536     0.06100
C733        C  0.44322455  0.41280944  0.50437446     0.03200
C734        C  0.44918467  0.40731112  0.96833657    -0.13000
C735        C  0.45891643  0.39592436  0.96955987     0.00700
C736        C  0.46207792  0.38944375  0.50731632    -0.11500
C737        C  0.45768002  0.39613825  0.54364913     0.03200
C738        C  0.44818487  0.40778995  0.54201924    -0.10900
H739        H  0.44629161  0.41202662  0.93930904     0.08800
H740        H  0.46986579  0.38089196  0.50836863     0.06300
H741        H  0.44483916  0.41311094  0.56992812     0.06100
N742        N  0.82202515  0.46171634  0.74961173    -0.36600
N743        N  0.78318205  0.43819704  0.81189940    -0.57100
N744        N  0.74489422  0.41386209  0.74940680    -0.36600
N745        N  0.78316028  0.43545166  0.68721422    -0.57100
C746        C  0.83574024  0.46705301  0.78311693     0.27000
C747        C  0.83577055  0.46597018  0.71685148     0.27000
C748        C  0.73034372  0.40188597  0.78260872     0.27000
C749        C  0.73031119  0.40079121  0.71654615     0.27000
C750        C  0.80363208  0.45288169  0.83605516     0.35600
C751        C  0.76317169  0.42819292  0.83583320     0.35600
C752        C  0.80348525  0.44913963  0.66285390     0.35600
C753        C  0.76311998  0.42460746  0.66281294     0.35600
C754        C  0.85885142  0.47573644  0.77137443    -0.21800
C755        C  0.85887282  0.47507491  0.72965098    -0.21800
C756        C  0.70616411  0.38112691  0.77065579    -0.21800
C757        C  0.70610094  0.38053765  0.72899302    -0.21800
C758        C  0.79652390  0.45220036  0.87558328    -0.22900
C759        C  0.77093932  0.43669565  0.87537120    -0.22900
C760        C  0.79624263  0.44664136  0.62273658    -0.22900
C761        C  0.77071344  0.43118670  0.62273707    -0.22900
C762        C  0.82820599  0.46456111  0.82404930    -0.18300
C763        C  0.82827802  0.46221329  0.67565455    -0.18300
C764        C  0.73789677  0.40731899  0.67558979    -0.18200
C765        C  0.73788180  0.40975884  0.82335989    -0.18200
H766        H  0.87412370  0.48178354  0.79082882     0.14700
H767        H  0.87412163  0.48045845  0.71091688     0.14700
H768        H  0.69010696  0.36789895  0.78991578     0.14700
H769        H  0.68996910  0.36675602  0.71009987     0.14700
H770        H  0.80842248  0.46137795  0.90210146     0.12900
H771        H  0.75932638  0.43164505  0.90158272     0.12900
H772        H  0.80804541  0.45474370  0.59607365     0.12900
H773        H  0.75904966  0.42503411  0.59610856     0.12900
H774        H  0.80505623  0.45718314  0.74904601     0.26200
H775        H  0.76286121  0.43138727  0.74896563     0.26200
N776        N  0.53644427  0.35500388  0.75190801    -0.36600
N777        N  0.51477510  0.36426327  0.69129514    -0.57100
N778        N  0.49614211  0.37605942  0.75575401    -0.36600
N779        N  0.51565204  0.36398227  0.81630543    -0.57100
C780        C  0.53946901  0.34639464  0.71848815     0.27000
C781        C  0.54052336  0.34690737  0.78445810     0.27000
C782        C  0.48456243  0.37565490  0.72309322     0.27000
C783        C  0.48460976  0.37492175  0.78937072     0.27000
C784        C  0.52835029  0.36232383  0.66657822     0.35600
C785        C  0.50734229  0.37373835  0.66858243     0.35600
C786        C  0.53043843  0.36287955  0.83886815     0.35600
C787        C  0.50817955  0.37276383  0.84110775     0.35600
C788        C  0.54564175  0.33273118  0.72996955    -0.21800
C789        C  0.54632258  0.33306843  0.77167805    -0.21800
C790        C  0.46572619  0.37472542  0.73610386    -0.21800
C791        C  0.46574028  0.37423499  0.77792793    -0.21800
C792        C  0.52927321  0.37026672  0.62785031    -0.22900
C793        C  0.51598836  0.37751829  0.62909866    -0.22900
C794        C  0.53212898  0.37068995  0.87829442    -0.22900
C795        C  0.51798487  0.37691940  0.87973869    -0.22900
C796        C  0.53880797  0.35225080  0.67800700    -0.18300
C797        C  0.54102483  0.35328307  0.82519330    -0.18300
C798        C  0.49144728  0.37570215  0.83006074    -0.18200
C799        C  0.49121210  0.37715610  0.68195903    -0.18200
H800        H  0.54968579  0.32382304  0.71034055     0.14700
H801        H  0.55095794  0.32444644  0.79043832     0.14700
H802        H  0.45327980  0.37447377  0.71740692     0.14700
H803        H  0.45333556  0.37356117  0.79766200     0.14700
H804        H  0.53834957  0.37056674  0.60138603     0.12900
H805        H  0.51278630  0.38447749  0.60366631     0.12900
H806        H  0.54222969  0.37150478  0.90351971     0.12900
H807        H  0.51513118  0.38360102  0.90627217     0.12900
H808        H  0.53505967  0.36834874  0.75251202     0.26200
H809        H  0.51257612  0.37954284  0.75510160     0.26200
O810        O  0.60338221  0.28387601  0.96822537    -0.85300
O811        O  0.64441527  0.33232412  0.94637879    -0.82400
C812        C  0.65884753  0.35573137  0.94315870     0.98200
O813        O  0.65684223  0.36805132  0.96709880    -0.82400
O814        O  0.61166110  0.35378929  0.95011841    -0.85000
C815        C  0.58832736  0.33961091  0.94634238     1.02700
O816        O  0.57389294  0.32181533  0.97091548    -0.77800
O817        O  0.57704845  0.28735176  0.94905755    -0.78000
C818        C  0.58615014  0.27758529  0.94466233     1.02600
O819        O  0.61578547  0.29922887  0.55118156    -0.85300
O820        O  0.65884695  0.34564362  0.52842066    -0.82400
C821        C  0.66050463  0.35989504  0.55362908     0.98200
O822        O  0.64556604  0.36324994  0.55182465    -0.82400
O823        O  0.60236737  0.35365480  0.53534651    -0.85000
C824        C  0.58559237  0.33615975  0.55879883     1.02600
O825        O  0.57736581  0.31444508  0.55427249    -0.77800
O826        O  0.57663557  0.27734758  0.53369767    -0.78000
C827        C  0.59279086  0.28103122  0.55679675     1.02600
Cr828      Cr  0.62913339  0.31567260  0.99897783     1.93700
Cr829      Cr  0.62771863  0.35734902  0.50090938     1.93200
Cr830      Cr  0.57878277  0.30181221  0.00176460     1.39100
O831        O  0.61190805  0.32487763  0.00075125    -1.23100
N832        N  0.55284660  0.19790077  0.74888439    -0.36600
N833        N  0.54410798  0.16490319  0.68461171    -0.57100
N834        N  0.52886539  0.12780476  0.74393454    -0.36600
N835        N  0.53950800  0.16178645  0.80831237    -0.57100
C836        C  0.56487480  0.21393056  0.71745457     0.27000
C837        C  0.56130204  0.21191099  0.78307699     0.27000
C838        C  0.53014750  0.11783300  0.71044372     0.27000
C839        C  0.52933000  0.11688294  0.77657065     0.27000
C840        C  0.54837707  0.18289448  0.66192109     0.35600
C841        C  0.53460394  0.14562864  0.65915714     0.35600
C842        C  0.54077254  0.17759822  0.83291588     0.35600
C843        C  0.52964881  0.14136973  0.83063013     0.35600
C844        C  0.58091296  0.23838140  0.73169648    -0.21800
C845        C  0.57866797  0.23710814  0.77320978    -0.21800
C846        C  0.53079263  0.09988810  0.72184354    -0.21800
C847        C  0.53039298  0.09936277  0.76364924    -0.21800
C848        C  0.54165609  0.17511419  0.62184571    -0.22900
C849        C  0.53291086  0.15144220  0.62007916    -0.22900
C850        C  0.53146790  0.16710764  0.87098803    -0.22900
C851        C  0.52457314  0.14420011  0.86963913    -0.22900
C852        C  0.56052473  0.20709334  0.67613127    -0.18300
C853        C  0.55313852  0.20251641  0.82282030    -0.18300
C854        C  0.52745072  0.12134969  0.81754899    -0.18200
C855        C  0.52990663  0.12398167  0.66992337    -0.18200
H856        H  0.59289545  0.25538020  0.71398528     0.14700
H857        H  0.58871179  0.25294919  0.79375491     0.14700
H858        H  0.53155286  0.08843008  0.70211305     0.14700
H859        H  0.53062621  0.08728334  0.78237921     0.14700
H860        H  0.54345996  0.18563536  0.59638737     0.12900
H861        H  0.52665593  0.14008944  0.59294896     0.12900
H862        H  0.53066079  0.17549975  0.89737371     0.12900
H863        H  0.51717911  0.13133084  0.89475904     0.12900
H864        H  0.53778558  0.17869426  0.74673562     0.26200
H865        H  0.52531363  0.13949471  0.74440923     0.26200
C866        C  0.50352617  0.03135705  0.99494063     0.03200
C867        C  0.50606740  0.04323849  0.53110875    -0.13000
C868        C  0.51402540  0.06701093  0.52989683     0.00700
C869        C  0.51901066  0.07877698  0.99216378    -0.11500
C870        C  0.51511523  0.06632482  0.95595833     0.03200
C871        C  0.50698525  0.04246760  0.95737102    -0.10900
H872        H  0.50316370  0.03467152  0.56019219     0.08800
H873        H  0.52479648  0.09701804  0.99112178     0.06300
H874        H  0.50330345  0.03258003  0.92932386     0.06100
C875        C  0.54539399  0.11384725  0.87178396    -0.09100
C876        C  0.52437669  0.10504288  0.84923726     0.07100
C877        C  0.50065622  0.08198687  0.85918101    -0.02900
C878        C  0.49802892  0.06872713  0.89295744    -0.07300
C879        C  0.51888564  0.07827381  0.91689556     0.06200
C880        C  0.54280957  0.10057266  0.90535471    -0.02400
Br881      Br  0.57235477  0.11361753  0.93483301    -0.02100
H882        H  0.56373925  0.13145753  0.86387931     0.10100
H883        H  0.47956534  0.05154789  0.90162969     0.08100
Br884      Br  0.47136599  0.06893568  0.82891027    -0.02500
C885        C  0.50153310  0.08787092  0.62295882    -0.09100
C886        C  0.52594993  0.10783723  0.63658489     0.07100
C887        C  0.54638057  0.11380351  0.61578627    -0.02900
C888        C  0.54217545  0.09989163  0.58157758    -0.07300
C889        C  0.51776823  0.08012809  0.56764552     0.06200
C890        C  0.49734387  0.07412419  0.58850335    -0.02400
Br891      Br  0.46365807  0.04852346  0.56924716    -0.02100
H892        H  0.48579727  0.08358920  0.63832065     0.10100
H893        H  0.55797514  0.10479262  0.56531274     0.08100
Br894      Br  0.58024729  0.14139332  0.63224122    -0.02500
C895        C  0.54972200  0.23110769  0.85630710    -0.09100
C896        C  0.56023985  0.22046321  0.85562685     0.07100
C897        C  0.57914491  0.22879942  0.88361230    -0.02900
C898        C  0.58685374  0.24706210  0.91220293    -0.07300
C899        C  0.57653904  0.25800621  0.91326153     0.06200
C900        C  0.55776096  0.24986446  0.88445935    -0.02400
Br901      Br  0.54284617  0.26385686  0.88007622    -0.02100
H902        H  0.53559052  0.22518388  0.83407275     0.10100
H903        H  0.60144613  0.25299006  0.93334069     0.08100
Br904      Br  0.59624462  0.21703548  0.88237382    -0.02500
C905        C  0.59893650  0.25642214  0.59526910    -0.09100
C906        C  0.58482005  0.26295220  0.58874425     0.07100
C907        C  0.56311942  0.25154751  0.61202403    -0.02900
C908        C  0.55559630  0.23345065  0.64050990    -0.07300
C909        C  0.56936694  0.22653676  0.64610675     0.06200
C910        C  0.59130609  0.23825010  0.62366709    -0.02400
Br911      Br  0.61134666  0.23006451  0.63098901    -0.02100
H912        H  0.61567485  0.26510617  0.57763353     0.10100
H913        H  0.53892522  0.22468118  0.65840323     0.08100
Br914      Br  0.54373681  0.26069611  0.60801390    -0.02500
C915        C  0.54814957  0.32203234  0.59625842    -0.09100
C916        C  0.57413806  0.34058134  0.58989827     0.07100
C917        C  0.58829811  0.36293158  0.61279934    -0.02900
C918        C  0.57636868  0.36653893  0.64068909    -0.07300
C919        C  0.55040996  0.34817057  0.64639827     0.06200
C920        C  0.53627071  0.32568821  0.62416929    -0.02400
Br921      Br  0.50085737  0.29933874  0.63170023    -0.02100
H922        H  0.53695812  0.30469875  0.57910549     0.10100
H923        H  0.58743501  0.38360387  0.65855063     0.08100
Br924      Br  0.62406770  0.38830176  0.60977119    -0.02500
C925        C  0.55096598  0.32536944  0.90892489    -0.09100
C926        C  0.57716837  0.34357373  0.91388830     0.07100
C927        C  0.59144571  0.36464034  0.88787630    -0.02900
C928        C  0.57926057  0.36740772  0.85920593    -0.07300
C929        C  0.55318368  0.34942439  0.85534550     0.06200
C930        C  0.53903223  0.32804812  0.87978089    -0.02400
Br931      Br  0.50346824  0.30174380  0.87353243    -0.02100
H932        H  0.53952859  0.30873788  0.92758464     0.10100
H933        H  0.59015973  0.38369705  0.83973489     0.08100
Br934      Br  0.62735447  0.39040914  0.88894032    -0.02500
C935        C  0.68378051  0.38856707  0.89031186    -0.09100
C936        C  0.67894154  0.36915969  0.91238856     0.07100
C937        C  0.69396709  0.36355096  0.90551651    -0.02900
C938        C  0.71343516  0.37739085  0.87720987    -0.07300
C939        C  0.71802440  0.39656472  0.85492524     0.06200
C940        C  0.70283632  0.40192848  0.86124735    -0.02400
Br941      Br  0.70715055  0.42694934  0.83024926    -0.02100
H942        H  0.67240168  0.39305686  0.89518151     0.10100
H943        H  0.72492304  0.37302922  0.87219748     0.08100
Br944      Br  0.68966305  0.33807532  0.93504659    -0.02500
C945        C  0.68731626  0.35989445  0.60013215    -0.09100
C946        C  0.68029074  0.37250079  0.58488765     0.07100
C947        C  0.69298491  0.39697843  0.59874927    -0.02900
C948        C  0.71147444  0.40785129  0.62862217    -0.07300
C949        C  0.71811411  0.39502763  0.64411145     0.06200
C950        C  0.70622006  0.37104892  0.62921024    -0.02400
Br951      Br  0.71540458  0.35305679  0.64742351    -0.02100
H952        H  0.67806802  0.34124905  0.58936019     0.10100
H953        H  0.72112768  0.42662185  0.63926617     0.08100
Br954      Br  0.68785420  0.41742991  0.57537143    -0.02500
C955        C  0.45250143  0.36674615  0.59207761    -0.09100
C956        C  0.46382434  0.39134364  0.58282808     0.07100
C957        C  0.48255351  0.41101216  0.60898298    -0.02900
C958        C  0.49040725  0.40593993  0.64250002    -0.07300
C959        C  0.47986578  0.38149002  0.65040363     0.06200
C960        C  0.46028570  0.36172468  0.62563637    -0.02400
Br961      Br  0.44441937  0.32774717  0.63581279    -0.02100
H962        H  0.43802855  0.35146358  0.57238248     0.10100
H963        H  0.50556721  0.42124165  0.66138559     0.08100
Br964      Br  0.49973833  0.44532446  0.59820942    -0.02500
C965        C  0.49054388  0.40433572  0.87006874    -0.09100
C966        C  0.48078053  0.38004665  0.86323556     0.07100
C967        C  0.46284935  0.36081380  0.89026195    -0.02900
C968        C  0.45553385  0.36622533  0.92416122    -0.07300
C969        C  0.46576226  0.39066634  0.93168266     0.06200
C970        C  0.48327739  0.40980696  0.90400594    -0.02400
Br971      Br  0.49961432  0.44411803  0.91285224    -0.02100
H972        H  0.50461356  0.41928383  0.84973872     0.10100
H973        H  0.44201740  0.35134240  0.94506320     0.08100
Br974      Br  0.44829591  0.32703286  0.88250405    -0.02500
C975        C  0.86651175  0.46239512  0.59670349    -0.09100
C976        C  0.87758557  0.48450771  0.57559320     0.07100
C977        C  0.87417671  0.50041687  0.58974206    -0.02900
C978        C  0.85902524  0.49352893  0.62366192    -0.07300
C979        C  0.84701479  0.47080625  0.64353491     0.06200
C980        C  0.85117962  0.45538899  0.63023884    -0.02400
Br981      Br  0.83522159  0.42396707  0.65560467    -0.02100
H982        H  0.86893474  0.44998870  0.58595767     0.10100
H983        H  0.85591916  0.50549059  0.63377542     0.08100
Br984      Br  0.88974573  0.53156657  0.56371657    -0.02500
C985        C  0.86447679  0.46133603  0.90187119    -0.09100
C986        C  0.87647470  0.48341322  0.92409358     0.07100
C987        C  0.87426614  0.50038221  0.91132141    -0.02900
C988        C  0.85921747  0.49454878  0.87776549    -0.07300
C989        C  0.84625106  0.47186514  0.85675321     0.06200
C990        C  0.84940421  0.45546137  0.86848199    -0.02400
Br991      Br  0.83266093  0.42437520  0.84060564    -0.02100
H992        H  0.86610952  0.44820030  0.91145075     0.10100
H993        H  0.85710189  0.50738309  0.86865991     0.08100
Br994      Br  0.89158464  0.53166034  0.93885961    -0.02500
C995        C  0.96633276  0.48271884  0.51938054    -0.09100
C996        C  0.99085182  0.50841584  0.00084102     0.07100
C997        C  0.98938287  0.52491340  0.01963114    -0.02900
C998        C  0.96689923  0.51963574  0.01864175    -0.07300
C999        C  0.94570981  0.49818934  0.99880629     0.06200
C1000       C  0.94477931  0.47911734  0.52014877    -0.02400
Br1001     Br  0.91593842  0.45014187  0.54778085    -0.02100
H1002       H  0.96627471  0.46955727  0.53503518     0.10100
H1003       H  0.96601678  0.53250828  0.03299581     0.08100
Br1004     Br  0.01776641  0.55554730  0.04500669    -0.02500
C1005       C  0.07269386  0.50419311  0.88155659    -0.09100
C1006       C  0.08324166  0.52443244  0.85546589     0.07100
C1007       C  0.07948025  0.54080077  0.86359059    -0.02900
C1008       C  0.06629050  0.53737778  0.89836554    -0.07300
C1009       C  0.05685390  0.51787160  0.92558394     0.06200
C1010       C  0.05952675  0.50075955  0.91628320    -0.02400
Br1011     Br  0.04528328  0.47223004  0.94970788    -0.02100
H1012       H  0.07534744  0.49141467  0.87542417     0.10100
H1013       H  0.06426100  0.55058474  0.90504039     0.08100
Br1014     Br  0.09332439  0.56893068  0.82955120    -0.02500
C1015       C  0.08057411  0.53713536  0.63261394    -0.09100
C1016       C  0.08081386  0.51852001  0.64282182     0.07100
C1017       C  0.06618468  0.49615212  0.62012393    -0.02900
C1018       C  0.05277203  0.49329096  0.58629903    -0.07300
C1019       C  0.05337815  0.51234248  0.57499284     0.06200
C1020       C  0.06694041  0.53418211  0.59900697    -0.02400
Br1021     Br  0.06905406  0.56126857  0.58527526    -0.02100
H1022       H  0.09181518  0.55441040  0.64992751     0.10100
H1023       H  0.04225607  0.47636079  0.56818111     0.08100
Br1024     Br  0.06447779  0.46934448  0.63373148    -0.02500
C1025       C  0.35700299  0.59079663  0.86751971    -0.09100
C1026       C  0.33762572  0.56727847  0.85044085     0.07100
C1027       C  0.31278181  0.55395886  0.86191630    -0.02900
C1028       C  0.30762245  0.56420673  0.89061976    -0.07300
C1029       C  0.32700402  0.58778182  0.90833033     0.06200
C1030       C  0.35201557  0.60123714  0.89606569    -0.02400
Br1031     Br  0.38043340  0.63422869  0.91531157    -0.02100
H1032       H  0.37613713  0.60120126  0.85814470     0.10100
H1033       H  0.28835388  0.55345967  0.89949416     0.08100
Br1034     Br  0.28548881  0.52166319  0.83936419    -0.02500
C1035       C  0.31408547  0.57060830  0.60538875    -0.09100
C1036       C  0.33347152  0.59170164  0.58290056     0.07100
C1037       C  0.35831124  0.60247192  0.58906629    -0.02900
C1038       C  0.36324720  0.59191892  0.61746793    -0.07300
C1039       C  0.34378067  0.57098122  0.64023835     0.06200
C1040       C  0.31908140  0.56042609  0.63418789    -0.02400
Br1041     Br  0.29158381  0.53229542  0.66491639    -0.02100
H1042       H  0.29494016  0.56219411  0.60091652     0.10100
H1043       H  0.38232414  0.60020560  0.62219617     0.08100
Br1044     Br  0.38587566  0.63071109  0.55839079    -0.02500
C1045       C  0.21858438  0.55988862  0.91167820    -0.09100
C1046       C  0.23998368  0.58573770  0.91160437     0.07100
C1047       C  0.24218095  0.60073171  0.88075178    -0.02900
C1048       C  0.22303148  0.58993372  0.85218199    -0.07300
C1049       C  0.20167386  0.56436888  0.85305677     0.06200
C1050       C  0.19961951  0.54919118  0.88269494    -0.02400
Br1051     Br  0.17142499  0.51379938  0.88428548    -0.02100
H1052       H  0.21641578  0.54784506  0.93453356     0.10100
H1053       H  0.22476496  0.60159178  0.82898952     0.08100
Br1054     Br  0.27076764  0.63581646  0.87413209    -0.02500
C1055       C  0.22087042  0.55457142  0.59334894    -0.09100
C1056       C  0.24056427  0.58068318  0.59042910     0.07100
C1057       C  0.24058936  0.59616666  0.61661079    -0.02900
C1058       C  0.22080213  0.58565717  0.64363155    -0.07300
C1059       C  0.20069292  0.55971835  0.64547769     0.06200
C1060       C  0.20098224  0.54404964  0.62057009    -0.02400
Br1061     Br  0.17465393  0.50835698  0.62294642    -0.02100
H1062       H  0.22057132  0.54237302  0.57361012     0.10100
H1063       H  0.22110963  0.59781985  0.66350864     0.08100
Br1064     Br  0.26779088  0.63175905  0.61842224    -0.02500
C1065       C  0.35383236  0.72087336  0.62201690    -0.09100
C1066       C  0.37362882  0.72688406  0.64465422     0.07100
C1067       C  0.38107481  0.71351219  0.63838554    -0.02900
C1068       C  0.36872030  0.69438283  0.60933993    -0.07300
C1069       C  0.34852622  0.68797909  0.58717906     0.06200
C1070       C  0.34117932  0.70150471  0.59351482    -0.02400
Br1071     Br  0.31495867  0.69532638  0.56275952    -0.02100
H1072       H  0.34808878  0.73117598  0.62687675     0.10100
H1073       H  0.37457549  0.68417523  0.60456787     0.08100
Br1074     Br  0.40777373  0.72069734  0.66921815    -0.02500
C1075       C  0.35718319  0.72269961  0.87943107    -0.09100
C1076       C  0.37574563  0.72727257  0.85516466     0.07100
C1077       C  0.38101148  0.71190687  0.85893204    -0.02900
C1078       C  0.36807116  0.69259839  0.88746671    -0.07300
C1079       C  0.34941528  0.68790288  0.91227263     0.06200
C1080       C  0.34381322  0.70314934  0.90742308    -0.02400
Br1081     Br  0.31766665  0.69831795  0.93599159    -0.02100
H1082       H  0.35260586  0.73407754  0.87570605     0.10100
H1083       H  0.37270199  0.68122801  0.89014570     0.08100
Br1084     Br  0.40555416  0.71652163  0.82545350    -0.02500
C1085       C  0.38058473  0.48013377  0.89744877    -0.09100
C1086       C  0.39953651  0.49878805  0.92417327     0.07100
C1087       C  0.41249098  0.52405869  0.91579750    -0.02900
C1088       C  0.40550745  0.53014102  0.88252276    -0.07300
C1089       C  0.38590353  0.51141434  0.85681574     0.06200
C1090       C  0.37374929  0.48628916  0.86392745    -0.02400
Br1091     Br  0.34701256  0.45981183  0.82963489    -0.02100
H1092       H  0.37048850  0.46066236  0.90347819     0.10100
H1093       H  0.41523542  0.54955639  0.87684948     0.08100
Br1094     Br  0.44028349  0.55099730  0.94825944    -0.02500
C1095       C  0.41477863  0.52370235  0.58324624    -0.09100
C1096       C  0.40036938  0.49818519  0.57519699     0.07100
C1097       C  0.38191276  0.48029593  0.60331607    -0.02900
C1098       C  0.37725493  0.48809638  0.63760180    -0.07300
C1099       C  0.39074871  0.51352903  0.64430250     0.06200
C1100       C  0.41018694  0.53145513  0.61756920    -0.02400
Br1101     Br  0.43003095  0.56662072  0.62577780    -0.02100
H1102       H  0.42921688  0.53761575  0.56212258     0.10100
H1103       H  0.36217088  0.47422061  0.65794579     0.08100
Br1104     Br  0.36088243  0.44499117  0.59439735    -0.02500
C1105       C  0.45126398  0.45121368  0.02159706    -0.09100
C1106       C  0.43540056  0.42710277  0.50244513     0.07100
C1107       C  0.41329725  0.41774010  0.48241956    -0.02900
C1108       C  0.40720851  0.43241026  0.48009389    -0.07300
C1109       C  0.42276729  0.45634413  0.49776956     0.06200
C1110       C  0.44521596  0.46585972  0.01973190    -0.00200
Br1111     Br  0.46778855  0.49819753  0.04539116    -0.02100
H1112       H  0.46810818  0.45838876  0.03745620     0.10100
H1113       H  0.38992797  0.42485078  0.46541972     0.08100
Br1114     Br  0.39010341  0.38453502  0.46004463    -0.02500
C1115       C  0.41962545  0.85841363  0.91624546    -0.09100
C1116       C  0.44448918  0.88014015  0.92473646     0.07100
C1117       C  0.46365078  0.88735677  0.89809125    -0.02900
C1118       C  0.45776724  0.87242348  0.86428220    -0.07300
C1119       C  0.43301167  0.85025820  0.85680403     0.06200
C1120       C  0.41378886  0.84352981  0.88255682    -0.02400
Br1121     Br  0.37942830  0.81376137  0.87341633    -0.02100
H1122       H  0.40475755  0.85273063  0.93646401     0.10100
H1123       H  0.47262984  0.87756611  0.84466335     0.08100
Br1124     Br  0.49825290  0.91604077  0.90842352    -0.02500
C1125       C  0.41328520  0.84315016  0.61772224    -0.09100
C1126       C  0.43256349  0.85067083  0.64395538     0.07100
C1127       C  0.45716134  0.87340154  0.63684691    -0.02900
C1128       C  0.46228714  0.88777477  0.60286023    -0.07300
C1129       C  0.44317420  0.87958725  0.57548458     0.06200
C1130       C  0.41839375  0.85731104  0.58360699    -0.02400
Br1131     Br  0.39084991  0.84527440  0.54902000    -0.02100
H1132       H  0.39429010  0.82574076  0.62317810     0.10100
H1133       H  0.48139592  0.90481751  0.59681844     0.08100
Br1134     Br  0.48445555  0.88451897  0.67110914    -0.02500
C1135       C  0.49702510  0.97517531  0.97856947    -0.09100
C1136       C  0.47496527  0.95658220  0.00020076     0.07100
C1137       C  0.46206291  0.96228979  0.52091508    -0.02900
C1138       C  0.47143751  0.98659856  0.51898781    -0.07300
C1139       C  0.49440933  0.00592692  0.99670946     0.06200
C1140       C  0.50682911  0.99968713  0.97674680    -0.02400
Br1141     Br  0.53776348  0.02403633  0.94818297    -0.02100
H1142       H  0.50677159  0.97062516  0.96323448     0.10100
H1143       H  0.46145737  0.99086770  0.53436407     0.08100
Br1144     Br  0.43111972  0.93782386  0.54936096    -0.02500
loop_ 
_geom_bond_atom_site_label_1 
_geom_bond_atom_site_label_2 
_geom_bond_distance 
_geom_bond_site_symmetry_2 
_ccdc_geom_bond_type 
C1            C2   1.407       .  A
C1          C578   1.407   1_554  A
C1         C1136   1.483       .  S
C2            C3   1.401       .  A
C2            H7   1.084       .  S
C3          C576   1.400       .  A
C3          C557   1.476       .  S
C4            C5   1.400       .  A
C4          C575   1.400       .  A
C4            H8   1.085       .  S
C5            C6   1.402       .  A
C5          C544   1.477       .  S
C6          C573   1.406       .  A
C6            H9   1.084       .  S
C10          C11   1.403   1_556  A
C10         C587   1.409       .  A
C10         C537   1.481       .  S
C11          C12   1.398       .  A
C11          H16   1.084       .  S
C12          C13   1.401   1_554  A
C12         C524   1.477       .  S
C13         C586   1.403       .  A
C13          H17   1.084   1_556  S
C14          C15   1.407       .  A
C14         C585   1.403       .  A
C14         C514   1.484       .  S
C15         C582   1.408       .  A
C15          H18   1.084       .  S
N19          C24   1.352       .  A
N19          C23   1.352       .  A
N19          H51   1.040       .  S
N20          C27   1.350       .  A
N20          C28   1.350       .  A
N21          C26   1.352       .  A
N21          C25   1.350       .  A
N21          H52   1.041       .  S
N22          C29   1.349       .  A
N22          C30   1.351       .  A
C23          C31   1.386       .  A
C23          C39   1.413       .  A
C24          C40   1.414       .  A
C24          C32   1.387       .  A
C25          C33   1.387       .  A
C25          C42   1.409       .  A
C26          C41   1.411       .  A
C26          C34   1.387       .  A
C27          C39   1.412       .  A
C27          C35   1.387       .  A
C28          C42   1.409       .  A
C28          C36   1.385       .  A
C29          C37   1.388       .  A
C29          C40   1.413       .  A
C30          C38   1.385       .  A
C30          C41   1.410       .  A
C31          C32   1.378       .  A
C31          H43   1.082       .  S
C32          H44   1.082       .  S
C33          C34   1.374       .  A
C33          H45   1.082       .  S
C34          H46   1.082       .  S
C35          C36   1.372       .  A
C35          H47   1.082       .  S
C36          H48   1.082       .  S
C37          C38   1.374       .  A
C37          H49   1.082       .  S
C38          H50   1.082       .  S
C39         C554   1.485       .  S
C40         C547   1.483       .  S
C41         C504   1.486       .  S
C42         C494   1.480       .  S
O53          C61   1.266       .  A
O53        Cr643   2.006       .  S
O54          C55   1.258       .  A
O54        Cr643   1.966       .  S
C55         C497   1.471       .  S
C55          O56   1.265       .  A
O56        Cr644   2.009   1_554  S
O57          C58   1.260       .  A
O57        Cr644   1.970   1_554  S
C58         C464   1.471       .  S
C58          O59   1.267       .  A
O59        Cr645   2.006   1_554  S
O60          C61   1.261       .  A
O60        Cr645   1.984   1_554  S
C61         C484   1.479       .  S
O62          C70   1.258       .  A
O62         Cr71   1.975       .  S
O63          C64   1.263       .  A
O63         Cr71   2.005       .  S
C64         C507   1.491       .  S
C64          O65   1.262       .  A
O65         Cr72   1.983       .  S
O66          C67   1.261       .  A
O66         Cr72   1.996       .  S
C67         C457   1.482       .  S
C67          O68   1.261       .  A
O68         Cr73   1.982       .  S
O69          C70   1.265       .  A
O69         Cr73   2.001       .  S
C70         C474   1.486       .  S
Cr71        O625   2.008       .  S
Cr71        O626   1.968       .  S
Cr71         O74   1.768       .  S
Cr72        O628   2.004       .  S
Cr72        O629   1.974       .  S
Cr72         O74   1.776       .  S
Cr73        O631   2.001       .  S
Cr73        O632   1.989       .  S
Cr73         O74   1.773       .  S
N75          C80   1.351       .  A
N75          C79   1.352       .  A
N75         H107   1.037       .  S
N76          C83   1.352       .  A
N76          C84   1.350       .  A
N77          C82   1.354       .  A
N77          C81   1.353       .  A
N77         H108   1.038       .  S
N78          C85   1.352       .  A
N78          C86   1.352       .  A
C79          C87   1.386       .  A
C79          C95   1.411       .  A
C80          C96   1.413       .  A
C80          C88   1.388       .  A
C81          C89   1.386       .  A
C81          C98   1.415       .  A
C82          C97   1.417       .  A
C82          C90   1.387       .  A
C83          C95   1.411       .  A
C83          C91   1.384       .  A
C84          C98   1.415       .  A
C84          C92   1.389       .  A
C85          C93   1.386       .  A
C85          C96   1.414       .  A
C86          C94   1.386       .  A
C86          C97   1.416       .  A
C87          C88   1.372       .  A
C87          H99   1.083       .  S
C88         H100   1.082       .  S
C89          C90   1.377       .  A
C89         H101   1.082       .  S
C90         H102   1.082       .  S
C91          C92   1.372       .  A
C91         H103   1.082       .  S
C92         H104   1.082       .  S
C93          C94   1.373       .  A
C93         H105   1.082       .  S
C94         H106   1.082       .  S
C95         C467   1.484       .  S
C96         C454   1.481       .  S
C97         C517   1.491       .  S
C98         C527   1.484       .  S
N109        C114   1.354       .  A
N109        C113   1.353       .  A
N109        H141   1.037       .  S
N110        C117   1.353       .  A
N110        C118   1.355       .  A
N111        C116   1.352       .  A
N111        C115   1.352       .  A
N111        H142   1.037       .  S
N112        C119   1.352       .  A
N112        C120   1.352       .  A
C113        C121   1.387       .  A
C113        C129   1.416       .  A
C114        C130   1.417       .  A
C114        C122   1.387       .  A
C115        C123   1.387       .  A
C115        C132   1.414       .  A
C116        C131   1.414       .  A
C116        C124   1.387       .  A
C117        C129   1.419       .  A
C117        C125   1.388       .  A
C118        C132   1.417       .  A
C118        C126   1.385       .  A
C119        C127   1.387       .  A
C119        C130   1.415       .  A
C120        C128   1.386       .  A
C120        C131   1.414       .  A
C121        C122   1.378       .  A
C121        H133   1.082       .  S
C122        H134   1.082       .  S
C123        C124   1.375       .  A
C123        H135   1.082       .  S
C124        H136   1.082       .  S
C125        C126   1.373       .  A
C125        H137   1.082       .  S
C126        H138   1.082       .  S
C127        C128   1.371       .  A
C127        H139   1.082       .  S
C128        H140   1.082       .  S
C129        C444   1.488       .  S
C130        C434   1.488       .  S
C131        C477   1.484       .  S
C132        C487   1.489       .  S
C143        C144   1.407       .  A
C143        C720   1.406       .  A
C143        C424   1.482   1_455  S
C144        C145   1.405       .  A
C144        H149   1.084       .  S
C145        C146   1.403       .  A
C145        C437   1.482       .  S
C146        C719   1.401       .  A
C146        H150   1.084       .  S
C147        C148   1.404       .  A
C147        C718   1.403       .  A
C147        C447   1.481       .  S
C148        C715   1.407       .  A
C148        H151   1.084       .  S
C152        C157   1.405       .  A
C152        C725   1.405       .  A
C152        C427   1.481       .  S
C153        C154   1.401       .  A
C153        C724   1.404   1_554  A
C153        H158   1.084       .  S
C154        C727   1.402   1_554  A
C154        C404   1.476       .  S
C155        C156   1.403       .  A
C155        C726   1.402       .  A
C155        H159   1.084       .  S
C156        C157   1.402       .  A
C156        C414   1.477       .  S
C157        H160   1.084       .  S
C161        C166   1.405       .  A
C161        C734   1.403   1_554  A
C161        C534   1.479       .  S
C162        C163   1.402       .  A
C162        C733   1.403       .  A
C162        H167   1.084       .  S
C163        C736   1.402       .  A
C163        C397   1.480       .  S
C164        C165   1.404       .  A
C164        C735   1.403   1_554  A
C164        H168   1.084       .  S
C165        C166   1.403       .  A
C165        C384   1.481       .  S
C166        H169   1.084       .  S
N170        C175   1.355       .  A
N170        C174   1.354       .  A
N170        H202   1.036       .  S
N171        C178   1.352       .  A
N171        C179   1.353       .  A
N172        C177   1.351       .  A
N172        C176   1.352       .  A
N172        H203   1.037       .  S
N173        C180   1.351       .  A
N173        C181   1.351       .  A
C174        C182   1.388       .  A
C174        C190   1.419       .  A
C175        C191   1.416       .  A
C175        C183   1.386       .  A
C176        C184   1.388       .  A
C176        C193   1.413       .  A
C177        C192   1.412       .  A
C177        C185   1.387       .  A
C178        C190   1.418       .  A
C178        C186   1.388       .  A
C179        C193   1.414       .  A
C179        C187   1.385       .  A
C180        C188   1.387       .  A
C180        C191   1.413       .  A
C181        C189   1.386       .  A
C181        C192   1.411       .  A
C182        C183   1.375       .  A
C182        H194   1.082       .  S
C183        H195   1.082       .  S
C184        C185   1.372       .  A
C184        H196   1.082       .  S
C185        H197   1.082       .  S
C186        C187   1.373       .  A
C186        H198   1.082       .  S
C187        H199   1.082       .  S
C188        C189   1.370       .  A
C188        H200   1.082       .  S
C189        H201   1.082       .  S
C190        C417   1.487       .  S
C191        C407   1.485       .  S
C192        C377   1.478       .  S
C193        C367   1.485       .  S
N204        C209   1.350       .  A
N204        C208   1.352       .  A
N204        H236   1.037       .  S
N205        C212   1.355       .  A
N205        C213   1.351       .  A
N206        C211   1.355       .  A
N206        C210   1.352       .  A
N206        H237   1.037       .  S
N207        C214   1.350       .  A
N207        C215   1.351       .  A
C208        C216   1.387       .  A
C208        C224   1.412       .  A
C209        C225   1.411       .  A
C209        C217   1.387       .  A
C210        C218   1.388       .  A
C210        C227   1.417       .  A
C211        C226   1.416       .  A
C211        C219   1.386       .  A
C212        C224   1.414       .  A
C212        C220   1.384       .  A
C213        C227   1.419       .  A
C213        C221   1.389       .  A
C214        C222   1.387       .  A
C214        C225   1.411       .  A
C215        C223   1.387       .  A
C215        C226   1.413       .  A
C216        C217   1.374       .  A
C216        H228   1.082       .  S
C217        H229   1.082       .  S
C218        C219   1.378       .  A
C218        H230   1.082       .  S
C219        H231   1.082       .  S
C220        C221   1.374       .  A
C220        H232   1.082       .  S
C221        H233   1.082       .  S
C222        C223   1.371       .  A
C222        H234   1.082       .  S
C223        H235   1.082       .  S
C224        C347   1.490       .  S
C225        C357   1.475       .  S
C226        C394   1.488       .  S
C227        C387   1.485       .  S
O238        C246   1.265       .  A
O238       Cr256   2.001       .  S
O239        C240   1.259       .  A
O239       Cr256   1.969       .  S
C240        C364   1.473       .  S
C240        O241   1.268       .  A
O241       Cr829   2.012       .  S
O242        C243   1.258       .  A
O242       Cr829   1.973       .  S
C243        C354   1.482       .  S
C243        O244   1.264       .  A
O244       Cr258   1.994       .  S
O245        C246   1.259       .  A
O245       Cr258   1.984       .  S
C246        C327   1.493       .  S
O247        C255   1.259       .  A
O247       Cr828   1.967   1_554  S
O248        C249   1.263       .  A
O248       Cr828   1.994   1_554  S
C249        C374   1.474       .  S
C249        O250   1.260       .  A
O250       Cr257   1.978       .  S
O251        C252   1.268       .  A
O251       Cr257   2.020       .  S
C252        C344   1.485       .  S
C252        O253   1.260       .  A
O253       Cr830   1.975       .  S
O254        C255   1.264       .  A
O254       Cr830   1.997       .  S
C255        C334   1.466       .  S
Cr256       O819   1.963       .  S
Cr256       O820   1.997       .  S
Cr256       O259   1.768       .  S
Cr257       O813   2.015   1_554  S
Cr257       O814   1.974   1_554  S
Cr257       O831   1.770       .  S
Cr258       O825   1.972       .  S
Cr258       O826   1.999       .  S
Cr258       O259   1.771       .  S
O259       Cr829   1.770       .  S
N260        C265   1.352       .  A
N260        C264   1.350       .  A
N260        H292   1.040       .  S
N261        C268   1.347       .  A
N261        C269   1.349       .  A
N262        C267   1.351       .  A
N262        C266   1.353       .  A
N262        H293   1.039       .  S
N263        C270   1.352       .  A
N263        C271   1.349       .  A
C264        C272   1.387       .  A
C264        C280   1.409       .  A
C265        C281   1.410       .  A
C265        C273   1.387       .  A
C266        C274   1.386       .  A
C266        C283   1.413       .  A
C267        C282   1.414       .  A
C267        C275   1.388       .  A
C268        C280   1.407       .  A
C268        C276   1.386       .  A
C269        C283   1.409       .  A
C269        C277   1.387       .  A
C270        C278   1.385       .  A
C270        C281   1.412       .  A
C271        C279   1.388       .  A
C271        C282   1.414       .  A
C272        C273   1.373       .  A
C272        H284   1.082       .  S
C273        H285   1.082       .  S
C274        C275   1.377       .  A
C274        H286   1.082       .  S
C275        H287   1.082       .  S
C276        C277   1.371       .  A
C276        H288   1.082       .  S
C277        H289   1.082       .  S
C278        C279   1.374       .  A
C278        H290   1.082       .  S
C279        H291   1.082       .  S
C280        C337   1.472       .  S
C281        C324   1.488       .  S
C282        C304   1.479       .  S
C283        C314   1.482       .  S
C294        C299   1.406       .  A
C294        C867   1.406       .  A
C294        C567   1.480       .  S
C295        C296   1.401       .  A
C295        C866   1.406   1_554  A
C295        H300   1.084       .  S
C296        C869   1.398   1_554  A
C296        C317   1.472       .  S
C297        C298   1.401       .  A
C297        C868   1.398       .  A
C297        H301   1.085       .  S
C298        C299   1.401       .  A
C298        C307   1.473       .  S
C299        H302   1.084       .  S
C303        C304   1.401       .  A
C303        C308   1.395       .  A
C303        H310   1.084       .  S
C304        C305   1.406       .  A
C305        C306   1.399       .  A
C305       Br312   1.918       .  S
C306        C307   1.404       .  A
C306        H311   1.083       .  S
C307        C308   1.408       .  A
C308       Br309   1.919       .  S
C313        C314   1.402       .  A
C313        C318   1.399       .  A
C313        H320   1.083       .  S
C314        C315   1.408       .  A
C315        C316   1.398       .  A
C315       Br322   1.918       .  S
C316        C317   1.401       .  A
C316        H321   1.083       .  S
C317        C318   1.407       .  A
C318       Br319   1.918       .  S
C323        C324   1.403       .  A
C323        C328   1.403       .  A
C323        H330   1.084       .  S
C324        C325   1.405       .  A
C325        C326   1.395       .  A
C325       Br332   1.921       .  S
C326        C327   1.410       .  A
C326        H331   1.083       .  S
C327        C328   1.419       .  A
C328       Br329   1.922       .  S
C333        C334   1.404       .  A
C333        C338   1.394       .  A
C333        H340   1.084       .  S
C334        C335   1.411       .  A
C335        C336   1.393       .  A
C335       Br342   1.920       .  S
C336        C337   1.398       .  A
C336        H341   1.084       .  S
C337        C338   1.405       .  A
C338       Br339   1.920       .  S
C343        C344   1.407       .  A
C343        C348   1.401       .  A
C343        H350   1.083       .  S
C344        C345   1.412       .  A
C345        C346   1.401       .  A
C345       Br352   1.916       .  S
C346        C347   1.402       .  A
C346        H351   1.083       .  S
C347        C348   1.407       .  A
C348       Br349   1.917       .  S
C353        C354   1.409       .  A
C353        C358   1.392       .  A
C353        H360   1.083       .  S
C354        C355   1.418       .  A
C355        C356   1.398       .  A
C355       Br362   1.923       .  S
C356        C357   1.399       .  A
C356        H361   1.084       .  S
C357        C358   1.401       .  A
C358       Br359   1.918       .  S
C363        C364   1.403       .  A
C363        C368   1.398       .  A
C363        H370   1.083       .  S
C364        C365   1.412       .  A
C365        C366   1.398       .  A
C365       Br372   1.921       .  S
C366        C367   1.401       .  A
C366        H371   1.084       .  S
C367        C368   1.408       .  A
C368       Br369   1.918       .  S
C373        C374   1.406       .  A
C373        C378   1.394       .  A
C373        H380   1.084       .  S
C374        C375   1.411       .  A
C375        C376   1.397       .  A
C375       Br382   1.919       .  S
C376        C377   1.401       .  A
C376        H381   1.084       .  S
C377        C378   1.404       .  A
C378       Br379   1.919       .  S
C383        C384   1.404       .  A
C383        C388   1.397       .  A
C383        H390   1.083       .  S
C384        C385   1.412       .  A
C385        C386   1.401       .  A
C385       Br392   1.920       .  S
C386        C387   1.402       .  A
C386        H391   1.083       .  S
C387        C388   1.406       .  A
C388       Br389   1.918       .  S
C393        C394   1.402       .  A
C393        C398   1.400       .  A
C393        H400   1.083       .  S
C394        C395   1.409       .  A
C395        C396   1.400       .  A
C395       Br402   1.918       .  S
C396        C397   1.404       .  A
C396        H401   1.084       .  S
C397        C398   1.411       .  A
C398       Br399   1.920       .  S
C403        C404   1.403       .  A
C403        C408   1.398       .  A
C403        H410   1.084       .  S
C404        C405   1.408       .  A
C405        C406   1.399       .  A
C405       Br412   1.917       .  S
C406        C407   1.402       .  A
C406        H411   1.083       .  S
C407        C408   1.408       .  A
C408       Br409   1.918       .  S
C413        C414   1.402       .  A
C413        C418   1.398       .  A
C413        H420   1.083       .  S
C414        C415   1.408       .  A
C415        C416   1.401       .  A
C415       Br422   1.918       .  S
C416        C417   1.403       .  A
C416        H421   1.083       .  S
C417        C418   1.409       .  A
C418       Br419   1.920       .  S
C423        C428   1.399       .  A
C423        C996   1.404   1_556  A
C423        H430   1.084       .  S
C424        C425   1.411       .  A
C424        C995   1.404       .  A
C425        C426   1.400       .  A
C425       Br432   1.919   1_655  S
C426        C427   1.404       .  A
C426        H431   1.084       .  S
C427       C1000   1.411       .  A
C428        C999   1.409       .  A
C428       Br429   1.920       .  S
C433        C434   1.403       .  A
C433        C438   1.400       .  A
C433        H440   1.083       .  S
C434        C435   1.408       .  A
C435        C436   1.400       .  A
C435       Br442   1.917       .  S
C436        C437   1.404       .  A
C436        H441   1.084       .  S
C437        C438   1.412       .  A
C438       Br439   1.920       .  S
C443        C444   1.403       .  A
C443        C448   1.401       .  A
C443        H450   1.083       .  S
C444        C445   1.407       .  A
C445        C446   1.399       .  A
C445       Br452   1.916       .  S
C446        C447   1.404       .  A
C446        H451   1.084       .  S
C447        C448   1.410       .  A
C448       Br449   1.917       .  S
C453        C454   1.399       .  A
C453        C458   1.396       .  A
C453        H460   1.084       .  S
C454        C455   1.404       .  A
C455        C456   1.398       .  A
C455       Br462   1.918       .  S
C456        C457   1.408       .  A
C456        H461   1.083       .  S
C457        C458   1.417       .  A
C458       Br459   1.923       .  S
C463        C464   1.401       .  A
C463        C468   1.394       .  A
C463        H470   1.084       .  S
C464        C465   1.412       .  A
C465        C466   1.401       .  A
C465       Br472   1.921       .  S
C466        C467   1.403       .  A
C466        H471   1.083       .  S
C467        C468   1.407       .  A
C468       Br469   1.917       .  S
C473        C474   1.410       .  A
C473        C478   1.397       .  A
C473        H480   1.083       .  S
C474        C475   1.418       .  A
C475        C476   1.398       .  A
C475       Br482   1.922       .  S
C476        C477   1.400       .  A
C476        H481   1.084       .  S
C477        C478   1.404       .  A
C478       Br479   1.918       .  S
C483        C484   1.406       .  A
C483        C488   1.404       .  A
C483        H490   1.083       .  S
C484        C485   1.410       .  A
C485        C486   1.397       .  A
C485       Br492   1.917       .  S
C486        C487   1.401       .  A
C486        H491   1.084       .  S
C487        C488   1.408       .  A
C488       Br489   1.916       .  S
C493        C494   1.400       .  A
C493        C498   1.395       .  A
C493        H500   1.084       .  S
C494        C495   1.407       .  A
C495        C496   1.399       .  A
C495       Br502   1.919       .  S
C496        C497   1.404       .  A
C496        H501   1.084       .  S
C497        C498   1.411       .  A
C498       Br499   1.920       .  S
C503        C504   1.399       .  A
C503        C508   1.398       .  A
C503        H510   1.084       .  S
C504        C505   1.406       .  A
C505        C506   1.399       .  A
C505       Br512   1.919       .  S
C506        C507   1.410       .  A
C506        H511   1.083       .  S
C507        C508   1.421       .  A
C508       Br509   1.923       .  S
C513        C514   1.404       .  A
C513        C518   1.402       .  A
C513        H520   1.083       .  S
C514        C515   1.412       .  A
C515        C516   1.400       .  A
C515       Br522   1.920       .  S
C516        C517   1.403       .  A
C516        H521   1.083       .  S
C517        C518   1.409       .  A
C518       Br519   1.917       .  S
C523        C524   1.403       .  A
C523        C528   1.396       .  A
C523        H530   1.084       .  S
C524        C525   1.411       .  A
C525        C526   1.400       .  A
C525       Br532   1.920       .  S
C526        C527   1.402       .  A
C526        H531   1.083       .  S
C527        C528   1.408       .  A
C528       Br529   1.919       .  S
C533        C538   1.397       .  A
C533       C1106   1.402       .  A
C533        H540   1.084       .  S
C534        C535   1.410   1_554  A
C534       C1105   1.402       .  A
C535        C536   1.401       .  A
C535       Br542   1.919       .  S
C536        C537   1.404       .  A
C536        H541   1.083       .  S
C537       C1110   1.412   1_556  A
C538       C1109   1.411       .  A
C538       Br539   1.920       .  S
C543        C544   1.403       .  A
C543        C548   1.395       .  A
C543        H550   1.084       .  S
C544        C545   1.410       .  A
C545        C546   1.400       .  A
C545       Br552   1.918       .  S
C546        C547   1.402       .  A
C546        H551   1.083       .  S
C547        C548   1.408       .  A
C548       Br549   1.920       .  S
C553        C554   1.402       .  A
C553        C558   1.397       .  A
C553        H560   1.084       .  S
C554        C555   1.408       .  A
C555        C556   1.400       .  A
C555       Br562   1.917       .  S
C556        C557   1.403       .  A
C556        H561   1.083       .  S
C557        C558   1.409       .  A
C558       Br559   1.919       .  S
C563        C564   1.405       .  A
C563        C568   1.399       .  A
C563        H570   1.084       .  S
C564       C1137   1.412       .  A
C564        C573   1.482       .  S
C565        C566   1.397       .  A
C565       C1136   1.412       .  A
C565       Br572   1.920       .  S
C566       C1139   1.403   1_564  A
C566        H571   1.084       .  S
C567        C568   1.411   1_545  A
C567       C1138   1.403   1_545  A
C568       Br569   1.921   1_565  S
C573        C574   1.407       .  A
C574        C575   1.402       .  A
C574        H579   1.084       .  S
C575       C1129   1.477       .  S
C576        C577   1.401   1_554  A
C576        H580   1.085   1_554  S
C577        C578   1.403       .  A
C577       C1116   1.477       .  S
C578        H581   1.084       .  S
C582        C583   1.403       .  A
C582       C1109   1.480       .  S
C583        C584   1.399       .  A
C583        H588   1.084       .  S
C584        C585   1.402       .  A
C584       C1096   1.478       .  S
C585        H589   1.084       .  S
C586        C587   1.407       .  A
C586       C1086   1.484       .  S
C587        H590   1.084       .  S
N591        C596   1.351       .  A
N591        C595   1.352       .  A
N591        H623   1.040       .  S
N592        C599   1.349       .  A
N592        C600   1.349       .  A
N593        C598   1.351       .  A
N593        C597   1.349       .  A
N593        H624   1.041       .  S
N594        C601   1.349       .  A
N594        C602   1.351       .  A
C595        C603   1.386       .  A
C595        C611   1.412       .  A
C596        C612   1.413       .  A
C596        C604   1.387       .  A
C597        C605   1.387       .  A
C597        C614   1.408       .  A
C598        C613   1.409       .  A
C598        C606   1.387       .  A
C599        C611   1.411       .  A
C599        C607   1.387       .  A
C600        C614   1.407       .  A
C600        C608   1.385       .  A
C601        C609   1.388       .  A
C601        C612   1.412       .  A
C602        C610   1.385       .  A
C602        C613   1.410       .  A
C603        C604   1.378       .  A
C603        H615   1.082       .  S
C604        H616   1.082       .  S
C605        C606   1.373       .  A
C605        H617   1.082       .  S
C606        H618   1.082       .  S
C607        C608   1.373       .  A
C607        H619   1.082       .  S
C608        H620   1.082       .  S
C609        C610   1.374       .  A
C609        H621   1.082       .  S
C610        H622   1.082       .  S
C611       C1126   1.484       .  S
C612       C1119   1.481       .  S
C613       C1076   1.483       .  S
C614       C1066   1.476       .  S
O625        C633   1.266       .  A
O626        C627   1.258       .  A
C627       C1069   1.468       .  S
C627        O628   1.264       .  A
O629        C630   1.261       .  A
C630       C1036   1.471       .  S
C630        O631   1.266       .  A
O632        C633   1.262       .  A
C633       C1056   1.484       .  S
O634        C642   1.258       .  A
O634       Cr643   1.973   1_556  S
O635        C636   1.263       .  A
O635       Cr643   2.004   1_556  S
C636       C1079   1.489       .  S
C636        O637   1.261       .  A
O637       Cr644   1.980       .  S
O638        C639   1.261       .  A
O638       Cr644   1.998       .  S
C639       C1029   1.483       .  S
C639        O640   1.260       .  A
O640       Cr645   1.978       .  S
O641        C642   1.266       .  A
O641       Cr645   2.008       .  S
C642       C1046   1.490       .  S
Cr643       O646   1.767   1_554  S
Cr644       O646   1.776       .  S
Cr645       O646   1.773       .  S
N647        C652   1.351       .  A
N647        C651   1.352       .  A
N647        H679   1.038       .  S
N648        C655   1.352       .  A
N648        C656   1.350       .  A
N649        C654   1.354       .  A
N649        C653   1.353       .  A
N649        H680   1.039       .  S
N650        C657   1.351       .  A
N650        C658   1.351       .  A
C651        C659   1.387       .  A
C651        C667   1.411       .  A
C652        C668   1.412       .  A
C652        C660   1.388       .  A
C653        C661   1.386       .  A
C653        C670   1.414       .  A
C654        C669   1.416       .  A
C654        C662   1.387       .  A
C655        C667   1.410       .  A
C655        C663   1.384       .  A
C656        C670   1.414       .  A
C656        C664   1.388       .  A
C657        C665   1.386       .  A
C657        C668   1.412       .  A
C658        C666   1.387       .  A
C658        C669   1.414       .  A
C659        C660   1.373       .  A
C659        H671   1.082       .  S
C660        H672   1.082       .  S
C661        C662   1.378       .  A
C661        H673   1.082       .  S
C662        H674   1.082       .  S
C663        C664   1.372       .  A
C663        H675   1.082       .  S
C664        H676   1.082       .  S
C665        C666   1.373       .  A
C665        H677   1.082       .  S
C666        H678   1.082       .  S
C667       C1039   1.483       .  S
C668       C1026   1.479       .  S
C669       C1089   1.489       .  S
C670       C1099   1.484       .  S
N681        C686   1.355       .  A
N681        C685   1.353       .  A
N681        H713   1.038       .  S
N682        C689   1.353       .  A
N682        C690   1.356       .  A
N683        C688   1.351       .  A
N683        C687   1.353       .  A
N683        H714   1.037       .  S
N684        C691   1.352       .  A
N684        C692   1.352       .  A
C685        C693   1.388       .  A
C685        C701   1.418       .  A
C686        C702   1.418       .  A
C686        C694   1.386       .  A
C687        C695   1.387       .  A
C687        C704   1.414       .  A
C688        C703   1.415       .  A
C688        C696   1.388       .  A
C689        C701   1.420       .  A
C689        C697   1.388       .  A
C690        C704   1.418       .  A
C690        C698   1.385       .  A
C691        C699   1.387       .  A
C691        C702   1.415       .  A
C692        C700   1.386       .  A
C692        C703   1.415       .  A
C693        C694   1.379       .  A
C693        H705   1.082       .  S
C694        H706   1.082       .  S
C695        C696   1.376       .  A
C695        H707   1.082       .  S
C696        H708   1.082       .  S
C697        C698   1.374       .  A
C697        H709   1.082       .  S
C698        H710   1.082       .  S
C699        C700   1.371       .  A
C699        H711   1.082       .  S
C700        H712   1.082       .  S
C701       C1016   1.487       .  S
C702       C1006   1.491       .  S
C703       C1049   1.484       .  S
C704       C1059   1.492       .  S
C715        C716   1.406   1_554  A
C715        C996   1.482   1_455  S
C716        C717   1.402       .  A
C716        H721   1.084       .  S
C717        C718   1.403   1_556  A
C717       C1009   1.483       .  S
C718        H722   1.084       .  S
C719        C720   1.402       .  A
C719       C1019   1.478       .  S
C720        H723   1.084       .  S
C724        C729   1.406       .  A
C724        C999   1.480       .  S
C725        C726   1.402       .  A
C725        H730   1.084       .  S
C726        C976   1.477       .  S
C727        C728   1.402       .  A
C727        H731   1.084       .  S
C728        C729   1.403       .  A
C728        C986   1.477       .  S
C729        H732   1.084       .  S
C733        C738   1.407       .  A
C733       C1106   1.480       .  S
C734        C735   1.402       .  A
C734        H739   1.084       .  S
C735        C969   1.482       .  S
C736        C737   1.404       .  A
C736        H740   1.084       .  S
C737        C738   1.405       .  A
C737        C956   1.482       .  S
C738        H741   1.084       .  S
N742        C747   1.355       .  A
N742        C746   1.354       .  A
N742        H774   1.036       .  S
N743        C750   1.352       .  A
N743        C751   1.353       .  A
N744        C749   1.352       .  A
N744        C748   1.352       .  A
N744        H775   1.037       .  S
N745        C752   1.352       .  A
N745        C753   1.352       .  A
C746        C754   1.388       .  A
C746        C762   1.419       .  A
C747        C763   1.417       .  A
C747        C755   1.386       .  A
C748        C756   1.387       .  A
C748        C765   1.414       .  A
C749        C764   1.413       .  A
C749        C757   1.387       .  A
C750        C762   1.417       .  A
C750        C758   1.388       .  A
C751        C765   1.415       .  A
C751        C759   1.385       .  A
C752        C760   1.387       .  A
C752        C763   1.415       .  A
C753        C761   1.386       .  A
C753        C764   1.413       .  A
C754        C755   1.375       .  A
C754        H766   1.082       .  S
C755        H767   1.082       .  S
C756        C757   1.372       .  A
C756        H768   1.082       .  S
C757        H769   1.082       .  S
C758        C759   1.373       .  A
C758        H770   1.082       .  S
C759        H771   1.082       .  S
C760        C761   1.370       .  A
C760        H772   1.082       .  S
C761        H773   1.082       .  S
C762        C989   1.488       .  S
C763        C979   1.486       .  S
C764        C949   1.481       .  S
C765        C939   1.487       .  S
N776        C781   1.349       .  A
N776        C780   1.351       .  A
N776        H808   1.037       .  S
N777        C784   1.354       .  A
N777        C785   1.351       .  A
N778        C783   1.355       .  A
N778        C782   1.353       .  A
N778        H809   1.037       .  S
N779        C786   1.351       .  A
N779        C787   1.351       .  A
C780        C788   1.387       .  A
C780        C796   1.411       .  A
C781        C797   1.409       .  A
C781        C789   1.387       .  A
C782        C790   1.387       .  A
C782        C799   1.417       .  A
C783        C798   1.417       .  A
C783        C791   1.386       .  A
C784        C796   1.414       .  A
C784        C792   1.384       .  A
C785        C799   1.417       .  A
C785        C793   1.388       .  A
C786        C794   1.386       .  A
C786        C797   1.411       .  A
C787        C795   1.387       .  A
C787        C798   1.413       .  A
C788        C789   1.374       .  A
C788        H800   1.082       .  S
C789        H801   1.083       .  S
C790        C791   1.378       .  A
C790        H802   1.082       .  S
C791        H803   1.082       .  S
C792        C793   1.374       .  A
C792        H804   1.082       .  S
C793        H805   1.082       .  S
C794        C795   1.371       .  A
C794        H806   1.082       .  S
C795        H807   1.082       .  S
C796        C919   1.486       .  S
C797        C929   1.475       .  S
C798        C966   1.488       .  S
C799        C959   1.486       .  S
O810        C818   1.265       .  A
O810       Cr828   1.999       .  S
O811        C812   1.260       .  A
O811       Cr828   1.972       .  S
C812        C936   1.478       .  S
C812        O813   1.268       .  A
O814        C815   1.258       .  A
C815        C926   1.482       .  S
C815        O816   1.264       .  A
O816       Cr830   1.991   1_556  S
O817        C818   1.259       .  A
O817       Cr830   1.983   1_556  S
C818        C899   1.491       .  S
O819        C827   1.258       .  A
O820        C821   1.263       .  A
C821        C946   1.475       .  S
C821        O822   1.261       .  A
O822       Cr829   1.979       .  S
O823        C824   1.267       .  A
O823       Cr829   2.016       .  S
C824        C916   1.481       .  S
C824        O825   1.259       .  A
O826        C827   1.264       .  A
C827        C906   1.465       .  S
Cr828       O831   1.769   1_556  S
Cr830       O831   1.771       .  S
N832        C837   1.351       .  A
N832        C836   1.349       .  A
N832        H864   1.040       .  S
N833        C840   1.348       .  A
N833        C841   1.349       .  A
N834        C839   1.351       .  A
N834        C838   1.353       .  A
N834        H865   1.038       .  S
N835        C842   1.352       .  A
N835        C843   1.349       .  A
C836        C844   1.387       .  A
C836        C852   1.407       .  A
C837        C853   1.410       .  A
C837        C845   1.387       .  A
C838        C846   1.386       .  A
C838        C855   1.412       .  A
C839        C854   1.414       .  A
C839        C847   1.388       .  A
C840        C852   1.407       .  A
C840        C848   1.386       .  A
C841        C855   1.409       .  A
C841        C849   1.387       .  A
C842        C850   1.385       .  A
C842        C853   1.412       .  A
C843        C851   1.388       .  A
C843        C854   1.414       .  A
C844        C845   1.373       .  A
C844        H856   1.082       .  S
C845        H857   1.082       .  S
C846        C847   1.377       .  A
C846        H858   1.082       .  S
C847        H859   1.082       .  S
C848        C849   1.371       .  A
C848        H860   1.082       .  S
C849        H861   1.082       .  S
C850        C851   1.374       .  A
C850        H862   1.082       .  S
C851        H863   1.082       .  S
C852        C909   1.471       .  S
C853        C896   1.486       .  S
C854        C876   1.480       .  S
C855        C886   1.481       .  S
C866        C871   1.406       .  A
C866       C1139   1.481       .  S
C867        C868   1.400       .  A
C867        H872   1.084       .  S
C868        C889   1.471       .  S
C869        C870   1.401       .  A
C869        H873   1.085       .  S
C870        C871   1.401       .  A
C870        C879   1.472       .  S
C871        H874   1.084       .  S
C875        C876   1.401       .  A
C875        C880   1.396       .  A
C875        H882   1.084       .  S
C876        C877   1.406       .  A
C877        C878   1.399       .  A
C877       Br884   1.918       .  S
C878        C879   1.403       .  A
C878        H883   1.083       .  S
C879        C880   1.407       .  A
C880       Br881   1.919       .  S
C885        C886   1.401       .  A
C885        C890   1.398       .  A
C885        H892   1.083       .  S
C886        C887   1.408       .  A
C887        C888   1.398       .  A
C887       Br894   1.918       .  S
C888        C889   1.402       .  A
C888        H893   1.084       .  S
C889        C890   1.407       .  A
C890       Br891   1.918       .  S
C895        C896   1.403       .  A
C895        C900   1.403       .  A
C895        H902   1.084       .  S
C896        C897   1.404       .  A
C897        C898   1.394       .  A
C897       Br904   1.920       .  S
C898        C899   1.410       .  A
C898        H903   1.083       .  S
C899        C900   1.419       .  A
C900       Br901   1.923       .  S
C905        C906   1.404       .  A
C905        C910   1.393       .  A
C905        H912   1.084       .  S
C906        C907   1.411       .  A
C907        C908   1.393       .  A
C907       Br914   1.920       .  S
C908        C909   1.399       .  A
C908        H913   1.084       .  S
C909        C910   1.405       .  A
C910       Br911   1.919       .  S
C915        C916   1.407       .  A
C915        C920   1.400       .  A
C915        H922   1.083       .  S
C916        C917   1.411       .  A
C917        C918   1.400       .  A
C917       Br924   1.916       .  S
C918        C919   1.402       .  A
C918        H923   1.084       .  S
C919        C920   1.406       .  A
C920       Br921   1.917       .  S
C925        C926   1.410       .  A
C925        C930   1.392       .  A
C925        H932   1.083       .  S
C926        C927   1.418       .  A
C927        C928   1.398       .  A
C927       Br934   1.922       .  S
C928        C929   1.399       .  A
C928        H933   1.084       .  S
C929        C930   1.401       .  A
C930       Br931   1.918       .  S
C935        C936   1.404       .  A
C935        C940   1.399       .  A
C935        H942   1.083       .  S
C936        C937   1.413       .  A
C937        C938   1.399       .  A
C937       Br944   1.920       .  S
C938        C939   1.401       .  A
C938        H943   1.084       .  S
C939        C940   1.407       .  A
C940       Br941   1.917       .  S
C945        C946   1.406       .  A
C945        C950   1.396       .  A
C945        H952   1.084       .  S
C946        C947   1.411       .  A
C947        C948   1.398       .  A
C947       Br954   1.919       .  S
C948        C949   1.401       .  A
C948        H953   1.084       .  S
C949        C950   1.405       .  A
C950       Br951   1.919       .  S
C955        C956   1.404       .  A
C955        C960   1.398       .  A
C955        H962   1.083       .  S
C956        C957   1.412       .  A
C957        C958   1.402       .  A
C957       Br964   1.919       .  S
C958        C959   1.402       .  A
C958        H963   1.083       .  S
C959        C960   1.406       .  A
C960       Br961   1.918       .  S
C965        C966   1.402       .  A
C965        C970   1.400       .  A
C965        H972   1.083       .  S
C966        C967   1.409       .  A
C967        C968   1.399       .  A
C967       Br974   1.918       .  S
C968        C969   1.404       .  A
C968        H973   1.084       .  S
C969        C970   1.413       .  A
C970       Br971   1.920       .  S
C975        C976   1.402       .  A
C975        C980   1.397       .  A
C975        H982   1.084       .  S
C976        C977   1.409       .  A
C977        C978   1.401       .  A
C977       Br984   1.918       .  S
C978        C979   1.403       .  A
C978        H983   1.083       .  S
C979        C980   1.408       .  A
C980       Br981   1.918       .  S
C985        C986   1.401       .  A
C985        C990   1.398       .  A
C985        H992   1.084       .  S
C986        C987   1.409       .  A
C987        C988   1.402       .  A
C987       Br994   1.918       .  S
C988        C989   1.404       .  A
C988        H993   1.083       .  S
C989        C990   1.409       .  A
C990       Br991   1.919       .  S
C995       C1000   1.399       .  A
C995       H1002   1.084       .  S
C996        C997   1.410       .  A
C997        C998   1.400       .  A
C997      Br1004   1.918   1_655  S
C998        C999   1.404   1_554  A
C998       H1003   1.084       .  S
C1000     Br1001   1.921       .  S
C1005      C1006   1.403       .  A
C1005      C1010   1.399       .  A
C1005      H1012   1.083       .  S
C1006      C1007   1.409       .  A
C1007      C1008   1.402       .  A
C1007     Br1014   1.917       .  S
C1008      C1009   1.405       .  A
C1008      H1013   1.083       .  S
C1009      C1010   1.411       .  A
C1010     Br1011   1.920       .  S
C1015      C1016   1.403       .  A
C1015      C1020   1.400       .  A
C1015      H1022   1.083       .  S
C1016      C1017   1.407       .  A
C1017      C1018   1.399       .  A
C1017     Br1024   1.916       .  S
C1018      C1019   1.403       .  A
C1018      H1023   1.084       .  S
C1019      C1020   1.410       .  A
C1020     Br1021   1.919       .  S
C1025      C1026   1.398       .  A
C1025      C1030   1.396       .  A
C1025      H1032   1.084       .  S
C1026      C1027   1.403       .  A
C1027      C1028   1.397       .  A
C1027     Br1034   1.918       .  S
C1028      C1029   1.409       .  A
C1028      H1033   1.083       .  S
C1029      C1030   1.419       .  A
C1030     Br1031   1.923       .  S
C1035      C1036   1.402       .  A
C1035      C1040   1.394       .  A
C1035      H1042   1.084       .  S
C1036      C1037   1.411       .  A
C1037      C1038   1.401       .  A
C1037     Br1044   1.921       .  S
C1038      C1039   1.404       .  A
C1038      H1043   1.083       .  S
C1039      C1040   1.406       .  A
C1040     Br1041   1.917       .  S
C1045      C1046   1.411       .  A
C1045      C1050   1.399       .  A
C1045      H1052   1.083       .  S
C1046      C1047   1.419       .  A
C1047      C1048   1.397       .  A
C1047     Br1054   1.922       .  S
C1048      C1049   1.399       .  A
C1048      H1053   1.084       .  S
C1049      C1050   1.404       .  A
C1050     Br1051   1.918       .  S
C1055      C1056   1.407       .  A
C1055      C1060   1.407       .  A
C1055      H1062   1.083       .  S
C1056      C1057   1.411       .  A
C1057      C1058   1.398       .  A
C1057     Br1064   1.917       .  S
C1058      C1059   1.401       .  A
C1058      H1063   1.084       .  S
C1059      C1060   1.409       .  A
C1060     Br1061   1.917       .  S
C1065      C1066   1.399       .  A
C1065      C1070   1.394       .  A
C1065      H1072   1.084       .  S
C1066      C1067   1.406       .  A
C1067      C1068   1.397       .  A
C1067     Br1074   1.919       .  S
C1068      C1069   1.404       .  A
C1068      H1073   1.084       .  S
C1069      C1070   1.411       .  A
C1070     Br1071   1.920       .  S
C1075      C1076   1.398       .  A
C1075      C1080   1.397       .  A
C1075      H1082   1.084       .  S
C1076      C1077   1.406       .  A
C1077      C1078   1.399       .  A
C1077     Br1084   1.919       .  S
C1078      C1079   1.410       .  A
C1078      H1083   1.083       .  S
C1079      C1080   1.421       .  A
C1080     Br1081   1.923       .  S
C1085      C1086   1.405       .  A
C1085      C1090   1.402       .  A
C1085      H1092   1.083       .  S
C1086      C1087   1.412       .  A
C1087      C1088   1.399       .  A
C1087     Br1094   1.920       .  S
C1088      C1089   1.402       .  A
C1088      H1093   1.083       .  S
C1089      C1090   1.408       .  A
C1090     Br1091   1.917       .  S
C1095      C1096   1.403       .  A
C1095      C1100   1.396       .  A
C1095      H1102   1.084       .  S
C1096      C1097   1.411       .  A
C1097      C1098   1.400       .  A
C1097     Br1104   1.919       .  S
C1098      C1099   1.402       .  A
C1098      H1103   1.083       .  S
C1099      C1100   1.408       .  A
C1100     Br1101   1.919       .  S
C1105      C1110   1.397       .  A
C1105      H1112   1.084       .  S
C1106      C1107   1.411       .  A
C1107      C1108   1.402       .  A
C1107     Br1114   1.919       .  S
C1108      C1109   1.404       .  A
C1108      H1113   1.083       .  S
C1110     Br1111   1.921       .  S
C1115      C1116   1.403       .  A
C1115      C1120   1.396       .  A
C1115      H1122   1.084       .  S
C1116      C1117   1.411       .  A
C1117      C1118   1.400       .  A
C1117     Br1124   1.918       .  S
C1118      C1119   1.402       .  A
C1118      H1123   1.083       .  S
C1119      C1120   1.407       .  A
C1120     Br1121   1.920       .  S
C1125      C1126   1.402       .  A
C1125      C1130   1.396       .  A
C1125      H1132   1.084       .  S
C1126      C1127   1.408       .  A
C1127      C1128   1.401       .  A
C1127     Br1134   1.918       .  S
C1128      C1129   1.404       .  A
C1128      H1133   1.083       .  S
C1129      C1130   1.410       .  A
C1130     Br1131   1.920       .  S
C1135      C1136   1.405   1_556  A
C1135      C1140   1.400       .  A
C1135      H1142   1.084       .  S
C1137      C1138   1.398       .  A
C1137     Br1144   1.920       .  S
C1138      H1143   1.084       .  S
C1139      C1140   1.411   1_545  A
C1140     Br1141   1.921   1_565  S
