geometry optimzed in LAMMPS
_audit_creation_date              2020-12-01 
_audit_creation_method            'lammps2cif' 
_symmetry_space_group_name_H-M    'P1' 
_symmetry_Int_Tables_number       1 
_symmetry_cell_setting            triclinic 
loop_ 
_symmetry_equiv_pos_as_xyz 
  x,y,z 
_cell_length_a                    47.14216274 
_cell_length_b                    47.414063317222755 
_cell_length_c                    42.65109394695 
_cell_angle_alpha                 89.91961219721269 
_cell_angle_beta                  89.1674110408537 
_cell_angle_gamma                 90.12987353336271 
loop_ 
_atom_site_label 
_atom_site_type_symbol 
_atom_site_fract_x 
_atom_site_fract_y 
_atom_site_fract_z 
_atom_site_charge 
C1          C  0.26385027  0.23170404  0.87359830     0.80200
N2          N  0.24402407  0.24700691  0.88974775    -0.78100
C3          C  0.22693489  0.26526543  0.87416642     0.82600
N4          N  0.22982257  0.26787489  0.84256766    -0.78000
C5          C  0.24939892  0.25279646  0.82626809     0.82700
N6          N  0.26638125  0.23480171  0.84197923    -0.79800
Zn7        Zn  0.50505779  0.47233479  0.97559818     1.49700
Zn8        Zn  0.46551335  0.00181636  0.92438803     1.49400
Zn9        Zn  0.50059227  0.03972926  0.97333266     1.49100
Zn10       Zn  0.03358923  0.00725373  0.91942749     1.49500
O11         O  0.50099753  0.00525442  0.94814806    -1.84100
O12         O  0.47095830  0.44693793  0.97244114    -0.74800
O13         O  0.44062504  0.03597103  0.93216118    -0.74600
O14         O  0.50186256  0.03065224  0.01947681    -0.74100
O15         O  0.44300687  0.46669938  0.93722844    -0.74800
O16         O  0.50755118  0.48418844  0.02082856    -0.74400
O17         O  0.46555473  0.06262887  0.96466878    -0.75000
O18         O  0.05706365  0.04273349  0.92472957    -0.74400
O19         O  0.47400108  0.00027255  0.87744388    -0.75100
O20         O  0.03475961  0.06428927  0.96399616    -0.74500
O21         O  0.02089392  0.00510520  0.87500287    -0.75000
O22         O  0.05945396  0.47435612  0.92598272    -0.74900
O23         O  0.03994436  0.44925804  0.96459163    -0.74700
C24         C  0.44811302  0.44706462  0.95683734     0.77100
C25         C  0.44365731  0.05850007  0.94808443     0.77600
C26         C  0.50538612  0.00785054  0.03475991     0.76600
C27         C  0.05516945  0.06303416  0.94415471     0.76900
C28         C  0.99712265  0.00210757  0.86162575     0.78100
C29         C  0.05953243  0.45300431  0.94410807     0.77100
C30         C  0.24212090  0.22471528  0.02443788     0.80200
N31         N  0.25540897  0.24650926  0.00929618    -0.78100
C32         C  0.26843803  0.26715658  0.02620223     0.82600
N33         N  0.26750626  0.26595090  0.05811105    -0.78000
C34         C  0.25430214  0.24436447  0.07326977     0.82700
N35         N  0.24189782  0.22383952  0.05624179    -0.79800
C36         C  0.02220618  0.47897582  0.37483996     0.80200
N37         N  0.02451863  0.47873114  0.34303506    -0.78100
C38         C  0.00779769  0.99537408  0.32527611     0.82600
N39         N  0.48888006  0.01264554  0.33971584    -0.78000
C40         C  0.48627845  0.01339899  0.37146697     0.82700
N41         N  0.00288440  0.99623668  0.38908938    -0.79800
Zn42       Zn  0.21470264  0.24631361  0.42629890     1.49700
Zn43       Zn  0.25189442  0.27993758  0.47627234     1.49400
Zn44       Zn  0.25297417  0.21237999  0.47565521     1.49100
Zn45       Zn  0.28262356  0.24689071  0.42032563     1.49500
O46         O  0.25042330  0.24638349  0.44963657    -1.84100
O47         O  0.19138368  0.28091995  0.43648982    -0.74800
O48         O  0.25346383  0.26910858  0.52211989    -0.74600
O49         O  0.21742816  0.18931932  0.47136149    -0.74100
O50         O  0.21809835  0.30520426  0.46942357    -0.74800
O51         O  0.19082078  0.21180885  0.43682170    -0.74400
O52         O  0.25656297  0.22238001  0.52126295    -0.75000
O53         O  0.30445891  0.21084527  0.42272011    -0.74400
O54         O  0.28698065  0.30286913  0.46670920    -0.75100
O55         O  0.28603598  0.18723092  0.46313188    -0.74500
O56         O  0.30962728  0.27901414  0.42924784    -0.75000
O57         O  0.26951781  0.24984802  0.37580724    -0.74900
O58         O  0.22247981  0.24754661  0.37943465    -0.74700
C59         C  0.19575584  0.30272275  0.45318586     0.77100
C60         C  0.25593142  0.24556836  0.53629809     0.77600
C61         C  0.19480349  0.19122415  0.45550897     0.76600
C62         C  0.30394250  0.18935447  0.44061001     0.76900
C63         C  0.30813271  0.29977410  0.44812739     0.78100
C64         C  0.24526106  0.24932080  0.36306463     0.77100
C65         C  0.47381296  0.48440516  0.52204245     0.80200
N66         N  0.98945837  0.50493602  0.50754133    -0.78100
C67         C  0.00398292  0.02409957  0.52491818     0.82600
N68         N  0.00231629  0.02266496  0.55673431    -0.78000
C69         C  0.98654223  0.00251389  0.57138721     0.82700
N70         N  0.47249567  0.48336041  0.55384800    -0.79800
C71         C  0.17259040  0.16927895  0.45976237    -0.03200
C72         C  0.17754006  0.14620181  0.47962258    -0.05800
C73         C  0.15609501  0.12671727  0.48621966    -0.20900
C74         C  0.12919244  0.12956054  0.47301272     0.24800
C75         C  0.12434005  0.15205087  0.45220050    -0.18500
C76         C  0.14590573  0.17172781  0.44561726    -0.08400
C77         C  0.10649118  0.11002661  0.48400421    -0.18700
C78         C  0.08210267  0.10481557  0.46897781    -0.23500
C79         C  0.06045371  0.08550142  0.48286182     0.26900
C80         C  0.04516906  0.06698565  0.46374193    -0.20300
C81         C  0.02640808  0.04718352  0.47714019    -0.09900
C82         C  0.02227054  0.04596753  0.50987765    -0.10500
C83         C  0.03663048  0.06553346  0.52869958    -0.03400
C84         C  0.05539416  0.08503978  0.51539100    -0.18500
H85         H  0.19784034  0.14350998  0.49079370     0.10600
H86         H  0.16039916  0.10961488  0.50233225     0.10600
H87         H  0.10371079  0.15518631  0.44199853     0.10300
H88         H  0.14140792  0.18930023  0.43024043     0.11400
H89         H  0.11047130  0.09874821  0.50570300     0.11500
H90         H  0.07856603  0.11349368  0.44580842     0.13400
H91         H  0.04849140  0.06718656  0.43856031     0.09900
H92         H  0.01567986  0.03248685  0.46195092     0.12000
H93         H  0.03375404  0.06560049  0.55393246     0.08600
H94         H  0.06609579  0.09970304  0.53068443     0.11400
C95         C  0.45787070  0.46334942  0.50390401    -0.03200
C96         C  0.44361352  0.47101453  0.47655387    -0.05800
C97         C  0.42561062  0.45175919  0.46184843    -0.20900
C98         C  0.42204045  0.42439584  0.47392691     0.24800
C99         C  0.43718389  0.41645574  0.50067163    -0.18500
C100        C  0.45477514  0.43580351  0.51558027    -0.08400
C101        C  0.39985924  0.40573160  0.46094744    -0.18700
C102        C  0.40154624  0.37742504  0.46192492    -0.23500
C103        C  0.37703097  0.35889970  0.45522614     0.26900
C104        C  0.38166194  0.33206654  0.44235130    -0.20300
C105        C  0.35907216  0.31317030  0.43885152    -0.09900
C106        C  0.33158774  0.32052319  0.44906822    -0.10500
C107        C  0.32695418  0.34749952  0.46170325    -0.03400
C108        C  0.34939169  0.36656688  0.46456298    -0.18500
H109        H  0.44506638  0.49232153  0.46767834     0.10600
H110        H  0.41381942  0.45847733  0.44155706     0.10600
H111        H  0.43431443  0.39581216  0.51112482     0.10300
H112        H  0.46543385  0.42944241  0.53677415     0.11400
H113        H  0.38111640  0.41562518  0.45133306     0.11500
H114        H  0.42126626  0.36743664  0.46865449     0.13400
H115        H  0.40285578  0.32560921  0.43537606     0.09900
H116        H  0.36329326  0.29245196  0.42922211     0.12000
H117        H  0.30601376  0.35373623  0.46980920     0.08600
H118        H  0.34528232  0.38683334  0.47535259     0.11400
C119        C  0.04078710  0.46034068  0.39318745    -0.03200
C120        C  0.03116667  0.44731464  0.42099085    -0.05800
C121        C  0.04798212  0.42701340  0.43579379    -0.20900
C122        C  0.07495263  0.42018057  0.42359286     0.24800
C123        C  0.08488369  0.43410024  0.39646581    -0.18500
C124        C  0.06792558  0.45379707  0.38137062    -0.08400
C125        C  0.09148560  0.39674802  0.43739416    -0.18700
C126        C  0.12004164  0.39690687  0.43738375    -0.23500
C127        C  0.13748508  0.37201653  0.44548911     0.26900
C128        C  0.16491515  0.37630813  0.45688322    -0.20300
C129        C  0.18336748  0.35357958  0.46083692    -0.09900
C130        C  0.17499080  0.32611945  0.45268231    -0.10500
C131        C  0.14728148  0.32170465  0.44191948    -0.03400
C132        C  0.12862505  0.34440220  0.43854037    -0.18500
H133        H  0.01022460  0.45188108  0.43044096     0.10600
H134        H  0.03979767  0.41635157  0.45651217     0.10600
H135        H  0.10525356  0.42885365  0.38600505     0.10300
H136        H  0.07586210  0.46355694  0.35999151     0.11400
H137        H  0.07993014  0.37882300  0.44706694     0.11500
H138        H  0.13128789  0.41601764  0.43048846     0.13400
H139        H  0.17231424  0.39742292  0.46204898     0.09900
H140        H  0.20463271  0.35769857  0.46897330     0.12000
H141        H  0.14024577  0.30078602  0.43540184     0.08600
H142        H  0.10784714  0.34046025  0.42898296     0.11400
C143        C  0.32397155  0.16615483  0.43389485    -0.03200
C144        C  0.33324965  0.16185757  0.40287685    -0.05800
C145        C  0.35148355  0.13974129  0.39546421    -0.20900
C146        C  0.36155476  0.12182119  0.41892777     0.24800
C147        C  0.35258782  0.12607787  0.45016982    -0.18500
C148        C  0.33358734  0.14795544  0.45754314    -0.08400
C149        C  0.38073433  0.09870697  0.40911288    -0.18700
C150        C  0.40267181  0.08924996  0.42604462    -0.23500
C151        C  0.42436388  0.06992071  0.41224209     0.26900
C152        C  0.44018367  0.05206663  0.43163472    -0.20300
C153        C  0.46059038  0.03378369  0.41865358    -0.09900
C154        C  0.46549684  0.03305496  0.38607005    -0.10500
C155        C  0.45030703  0.05166181  0.36695068    -0.03400
C156        C  0.43030054  0.06997776  0.37981991    -0.18500
H157        H  0.32594612  0.17533074  0.38412696     0.10600
H158        H  0.35800399  0.13677622  0.37122371     0.10600
H159        H  0.35970386  0.11223955  0.46864999     0.10300
H160        H  0.32662246  0.15080976  0.48163542     0.11400
H161        H  0.37781278  0.09080839  0.38551170     0.11500
H162        H  0.40540576  0.09651251  0.44994830     0.13400
H163        H  0.43655825  0.05206757  0.45677106     0.09900
H164        H  0.47243650  0.02017119  0.43400387     0.12000
H165        H  0.45393165  0.05231183  0.34183142     0.08600
H166        H  0.41992174  0.08448143  0.36414022     0.11400
C167        C  0.24370235  0.25076491  0.32850102    -0.03200
C168        C  0.21952326  0.26156751  0.31384330    -0.05800
C169        C  0.21861666  0.26370457  0.28112781    -0.20900
C170        C  0.24146410  0.25427845  0.26251926     0.24800
C171        C  0.26553535  0.24322765  0.27716348    -0.18500
C172        C  0.26672425  0.24170893  0.30983057    -0.08400
C173        C  0.24035756  0.25709841  0.22795333    -0.18700
C174        C  0.25109454  0.23729102  0.20865986    -0.23500
C175        C  0.25085220  0.23992378  0.17407078     0.29500
C176        C  0.24704544  0.21563802  0.15592478    -0.20300
C177        C  0.24786474  0.21719644  0.12321941    -0.09900
C178        C  0.25327797  0.24300897  0.10796566    -0.10500
C179        C  0.25744110  0.26732196  0.12617716    -0.03400
C180        C  0.25600378  0.26584563  0.15895592    -0.18500
H181        H  0.20157017  0.26887955  0.32769659     0.10600
H182        H  0.19995759  0.27248933  0.27030074     0.10600
H183        H  0.28370773  0.23634459  0.26339406     0.10300
H184        H  0.28562992  0.23330178  0.32050187     0.11400
H185        H  0.22945004  0.27520169  0.21822266     0.11500
H186        H  0.25926328  0.21783475  0.21851644     0.13400
H187        H  0.24328464  0.19541804  0.16711496     0.09900
H188        H  0.24469361  0.19805788  0.10987618     0.12000
H189        H  0.26162786  0.28750100  0.11509817     0.08600
H190        H  0.25962187  0.28480595  0.17245341     0.11400
C191        C  0.28480188  0.29025235  0.01065968    -0.03200
C192        C  0.29203075  0.28940369  0.97852767    -0.05800
C193        C  0.31013617  0.30994484  0.96531077    -0.20900
C194        C  0.32150873  0.33144869  0.98401812     0.24800
C195        C  0.31295147  0.33313356  0.01563952    -0.18500
C196        C  0.29492580  0.31282178  0.02876100    -0.08400
C197        C  0.34254565  0.35179875  0.97063472    -0.18700
C198        C  0.36422828  0.36149739  0.98789835    -0.23500
C199        C  0.38598967  0.38215957  0.97693298     0.26900
C200        C  0.41189817  0.38300229  0.99264928    -0.20300
C201        C  0.43220860  0.40354294  0.98541576    -0.09900
C202        C  0.42704265  0.42413396  0.96245187    -0.10500
C203        C  0.40126999  0.42305842  0.94619705    -0.03400
C204        C  0.38092168  0.40223191  0.95332415    -0.18500
H205        H  0.28445283  0.27244228  0.96384771     0.10600
H206        H  0.31608043  0.30845545  0.94074455     0.10600
H207        H  0.32038453  0.35007551  0.03042460     0.10300
H208        H  0.28937583  0.31458942  0.05340494     0.11400
H209        H  0.34103088  0.35757521  0.94608298     0.11500
H210        H  0.36682854  0.35312194  0.01141286     0.13400
H211        H  0.41631764  0.36788655  0.01101015     0.09900
H212        H  0.45176629  0.40361840  0.99842306     0.12000
H213        H  0.39657498  0.43864414  0.92844488     0.08600
H214        H  0.36094399  0.40255615  0.94116221     0.11400
C215        C  0.07761521  0.08502810  0.94461788    -0.03200
C216        C  0.09713750  0.08812017  0.91954202    -0.05800
C217        C  0.11955941  0.10753105  0.92139549    -0.20900
C218        C  0.12325382  0.12362633  0.94861447     0.24800
C219        C  0.10318845  0.12122556  0.97319145    -0.18500
C220        C  0.08058102  0.10226683  0.97114706    -0.08400
C221        C  0.14831276  0.14246781  0.95158350    -0.18700
C222        C  0.16237079  0.14397253  0.97875932    -0.23500
C223        C  0.18665830  0.16303779  0.98513487     0.26900
C224        C  0.20369869  0.15649726  0.01076899    -0.20300
C225        C  0.22340937  0.17586937  0.02177588    -0.09900
C226        C  0.22650107  0.20244716  0.00755271    -0.10500
C227        C  0.21110254  0.20835048  0.98035058    -0.03400
C228        C  0.19119759  0.18877610  0.96920949    -0.18500
H229        H  0.09527974  0.07529949  0.89867706     0.10600
H230        H  0.13459448  0.10926248  0.90204001     0.10600
H231        H  0.10508565  0.13391591  0.99415251     0.10300
H232        H  0.06588540  0.10052947  0.99081278     0.11400
H233        H  0.15591994  0.15394041  0.93107969     0.11500
H234        H  0.15572097  0.13007920  0.99781429     0.13400
H235        H  0.20080752  0.13679174  0.02332798     0.09900
H236        H  0.23522012  0.17059434  0.04257595     0.12000
H237        H  0.21298209  0.22875300  0.96906071     0.08600
H238        H  0.17822726  0.19462349  0.94953123     0.11400
C239        C  0.98452513  0.00157052  0.60609289    -0.03200
C240        C  0.46465896  0.98386899  0.62127723    -0.05800
C241        C  0.46255958  0.98322359  0.65399965    -0.20900
C242        C  0.48053409  0.99987462  0.67226369     0.24800
C243        C  0.00023243  0.51781645  0.65712665    -0.18500
C244        C  0.00219245  0.51863604  0.62441243    -0.08400
C245        C  0.47776687  0.99854717  0.70695453    -0.18700
C246        C  0.99974508  0.50338995  0.72600108    -0.23500
C247        C  0.99773267  0.50167293  0.76070663     0.26900
C248        C  0.02255685  0.49637378  0.77738459    -0.20300
C249        C  0.02211113  0.49595248  0.81008498    -0.09900
C250        C  0.99679172  0.00098548  0.82695117    -0.10500
C251        C  0.47176876  0.00594574  0.81033012    -0.03400
C252        C  0.47223490  0.00644113  0.77748122    -0.18500
H253        H  0.45055066  0.97062653  0.60789717     0.10600
H254        H  0.44703387  0.96944351  0.66510368     0.10600
H255        H  0.01382936  0.53162069  0.67042350     0.10300
H256        H  0.01758037  0.53267080  0.61350151     0.11400
H257        H  0.45753297  0.99176153  0.71686073     0.11500
H258        H  0.02060387  0.50739426  0.71578247     0.13400
H259        H  0.04245372  0.49267711  0.76504631     0.09900
H260        H  0.04172770  0.49187974  0.82218170     0.12000
H261        H  0.45201842  0.01019023  0.82270516     0.08600
H262        H  0.45282764  0.01135320  0.76542417     0.11400
C263        C  0.01001669  0.99473061  0.29055558    -0.03200
C264        C  0.52942991  0.47676579  0.27524285    -0.05800
C265        C  0.53128473  0.47616149  0.24249213    -0.20900
C266        C  0.51400066  0.49362562  0.22432527     0.24800
C267        C  0.99432907  0.01135649  0.23961847    -0.18500
C268        C  0.99245083  0.01195322  0.27232021    -0.08400
C269        C  0.51610111  0.49183327  0.18958603    -0.18700
C270        C  0.00800212  0.01281878  0.17037611    -0.23500
C271        C  0.00870033  0.01077562  0.13561052     0.26900
C272        C  0.00834962  0.03574868  0.11791988    -0.20300
C273        C  0.00753829  0.03483804  0.08519777    -0.09900
C274        C  0.50690984  0.00885159  0.06940829    -0.10500
C275        C  0.50737199  0.48381975  0.08708889    -0.03400
C276        C  0.50811336  0.48473486  0.11982235    -0.18500
H277        H  0.54316869  0.46308594  0.28852073     0.10600
H278        H  0.54636393  0.46205829  0.23129660     0.10600
H279        H  0.97987765  0.02437636  0.22652012     0.10300
H280        H  0.97702057  0.02581535  0.28327443     0.11400
H281        H  0.52549419  0.47288860  0.17973309     0.11500
H282        H  0.00122136  0.03277676  0.18036191     0.13400
H283        H  0.00858263  0.05607808  0.12948017     0.09900
H284        H  0.00726212  0.05451911  0.07229216     0.12000
H285        H  0.50666861  0.46345333  0.07566070     0.08600
H286        H  0.50743704  0.46499856  0.13253939     0.11400
C287        C  0.25823963  0.24506910  0.57092012    -0.03200
C288        C  0.25991519  0.21928231  0.58710736    -0.05800
C289        C  0.26216270  0.21876284  0.61973131    -0.20900
C290        C  0.26256673  0.24392926  0.63696857     0.24800
C291        C  0.26137766  0.26978298  0.62077265    -0.18500
C292        C  0.25911472  0.27031249  0.58812530    -0.08400
C293        C  0.26452294  0.24229008  0.67166087    -0.18700
C294        C  0.25505075  0.26277424  0.69095103    -0.23500
C295        C  0.25484217  0.26025109  0.72565478     0.26900
C296        C  0.23498828  0.27603985  0.74295166    -0.20300
C297        C  0.23338105  0.27376451  0.77556165    -0.09900
C298        C  0.25182422  0.25577437  0.79171853    -0.10500
C299        C  0.27229067  0.24053735  0.77447279    -0.03400
C300        C  0.27385426  0.24279179  0.74178261    -0.18500
H301        H  0.25943216  0.19943599  0.57459026     0.10600
H302        H  0.26326486  0.19858096  0.63159060     0.10600
H303        H  0.26259444  0.28966694  0.63307284     0.10300
H304        H  0.25822042  0.29053638  0.57635562     0.11400
H305        H  0.27210470  0.22264559  0.68154856     0.11500
H306        H  0.24495730  0.28126115  0.68111547     0.13400
H307        H  0.22029157  0.28984515  0.73113168     0.09900
H308        H  0.21746054  0.28596118  0.78804635     0.12000
H309        H  0.28707427  0.22677559  0.78619182     0.08600
H310        H  0.29010438  0.23103257  0.72935041     0.11400
C311        C  0.28265091  0.21155707  0.88967598    -0.03200
C312        C  0.27438100  0.19833231  0.91789320    -0.05800
C313        C  0.29156532  0.17749610  0.93117444    -0.20900
C314        C  0.31759621  0.17024396  0.91694840     0.24800
C315        C  0.32604776  0.18393781  0.88912567    -0.18500
C316        C  0.30873093  0.20423040  0.87560120    -0.08400
C317        C  0.33509693  0.14721330  0.92997976    -0.18700
C318        C  0.36360676  0.14853484  0.92932021    -0.23500
C319        C  0.38217502  0.12465272  0.93784216     0.26900
C320        C  0.40906187  0.13043762  0.94991412    -0.20300
C321        C  0.42854267  0.10872528  0.95457523    -0.09900
C322        C  0.42178613  0.08081722  0.94643022    -0.10500
C323        C  0.39460820  0.07491143  0.93491772    -0.03400
C324        C  0.37488910  0.09660553  0.93085604    -0.18500
H325        H  0.25428311  0.20342112  0.92908015     0.10600
H326        H  0.28453794  0.16700710  0.95249788     0.10600
H327        H  0.34566910  0.17831755  0.87721053     0.10300
H328        H  0.31569304  0.21402336  0.85384877     0.11400
H329        H  0.32440556  0.12896120  0.94009785     0.11500
H330        H  0.37393175  0.16803009  0.92199127     0.13400
H331        H  0.41521091  0.15193116  0.95516085     0.09900
H332        H  0.44933421  0.11399186  0.96334923     0.12000
H333        H  0.38880047  0.05361475  0.92843031     0.08600
H334        H  0.35452219  0.09159712  0.92083878     0.11400
C335        C  0.20570833  0.28304274  0.89079581    -0.03200
C336        C  0.20617508  0.28710214  0.92347601    -0.05800
C337        C  0.18745018  0.30630171  0.93789949    -0.20900
C338        C  0.16828697  0.32184154  0.91982084     0.24800
C339        C  0.16683735  0.31647375  0.88751665    -0.18500
C340        C  0.18533776  0.29748436  0.87322137    -0.08400
C341        C  0.15000656  0.34388148  0.93436104    -0.18700
C342        C  0.14417761  0.36776660  0.91854710    -0.23500
C343        C  0.12406420  0.39014108  0.92871567     0.26900
C344        C  0.12373276  0.41513454  0.91109465    -0.20300
C345        C  0.10334827  0.43577122  0.91684602    -0.09900
C346        C  0.08255131  0.43195752  0.94038538    -0.10500
C347        C  0.08334217  0.40736740  0.95888395    -0.03400
C348        C  0.10390223  0.38657876  0.95309882    -0.18500
H349        H  0.22152603  0.27617985  0.93768559     0.10600
H350        H  0.18861351  0.30975887  0.96294299     0.10600
H351        H  0.15148139  0.32715851  0.87309854     0.10300
H352        H  0.18386645  0.29446895  0.84813240     0.11400
H353        H  0.14206182  0.34063269  0.95808226     0.11500
H354        H  0.15476924  0.37115569  0.89604092     0.13400
H355        H  0.13892648  0.41845002  0.89213022     0.09900
H356        H  0.10349052  0.45443668  0.90217947     0.12000
H357        H  0.06761682  0.40382822  0.97723565     0.08600
H358        H  0.10320123  0.36748313  0.96696778     0.11400
C359        C  0.26385097  0.73170385  0.87359805     0.80200
N360        N  0.24402500  0.74700707  0.88974745    -0.78100
C361        C  0.22693610  0.76526580  0.87416601     0.82600
N362        N  0.22982385  0.76787508  0.84256726    -0.78000
C363        C  0.24939998  0.75279634  0.82626776     0.82700
N364        N  0.26638205  0.73480139  0.84197897    -0.79800
Zn365      Zn  0.50505826  0.97233462  0.97559723     1.49700
Zn366      Zn  0.46551332  0.50181635  0.92438828     1.49400
Zn367      Zn  0.50059253  0.53972943  0.97333294     1.49100
Zn368      Zn  0.03358916  0.50725328  0.91942794     1.49500
O369        O  0.50099742  0.50525440  0.94814854    -1.84100
O370        O  0.47095886  0.94693759  0.97244027    -0.74800
O371        O  0.44062511  0.53597102  0.93216184    -0.74600
O372        O  0.50186300  0.53065272  0.01947724    -0.74100
O373        O  0.44300699  0.96669944  0.93722829    -0.74800
O374        O  0.50755177  0.98418806  0.02082759    -0.74400
O375        O  0.46555484  0.56262887  0.96466943    -0.75000
O376        O  0.05706389  0.54273291  0.92472969    -0.74400
O377        O  0.47400098  0.50027264  0.87744395    -0.75100
O378        O  0.03476003  0.56428932  0.96399598    -0.74500
O379        O  0.02089394  0.50510430  0.87500321    -0.75000
O380        O  0.05945434  0.97435672  0.92598164    -0.74900
O381        O  0.03994490  0.94925814  0.96459023    -0.74700
C382        C  0.44811338  0.94706446  0.95683683     0.77100
C383        C  0.44365732  0.55849998  0.94808525     0.77600
C384        C  0.50538603  0.50785109  0.03476062     0.76600
C385        C  0.05516989  0.56303383  0.94415454     0.76900
C386        C  0.99712269  0.50210708  0.86162592     0.78100
C387        C  0.05953293  0.95300472  0.94410668     0.77100
C388        C  0.24212221  0.72471440  0.02443709     0.80200
N389        N  0.25541017  0.74650849  0.00929540    -0.78100
C390        C  0.26843928  0.76715576  0.02620149     0.82600
N391        N  0.26750765  0.76594994  0.05811027    -0.78000
C392        C  0.25430364  0.74436348  0.07326899     0.82700
N393        N  0.24189928  0.72383853  0.05624102    -0.79800
C394        C  0.02220506  0.97897491  0.37483912     0.80200
N395        N  0.02451731  0.97872987  0.34303422    -0.78100
C396        C  0.00779912  0.49537556  0.32527703     0.82600
N397        N  0.48888144  0.51264687  0.33971688    -0.78000
C398        C  0.48627962  0.51339999  0.37146799     0.82700
N399        N  0.00288543  0.49623745  0.38909031    -0.79800
Zn400      Zn  0.21470260  0.74631411  0.42629815     1.49700
Zn401      Zn  0.25189429  0.77993826  0.47627189     1.49400
Zn402      Zn  0.25297413  0.71238076  0.47565478     1.49100
Zn403      Zn  0.28262347  0.74689142  0.42032508     1.49500
O404        O  0.25042320  0.74638415  0.44963604    -1.84100
O405        O  0.19138359  0.78092036  0.43648915    -0.74800
O406        O  0.25346445  0.76910941  0.52211952    -0.74600
O407        O  0.21742802  0.68932018  0.47136128    -0.74100
O408        O  0.21809785  0.80520447  0.46942352    -0.74800
O409        O  0.19082068  0.71180945  0.43682123    -0.74400
O410        O  0.25656298  0.72238082  0.52126248    -0.75000
O411        O  0.30445919  0.71084619  0.42271994    -0.74400
O412        O  0.28698008  0.80287021  0.46670814    -0.75100
O413        O  0.28603612  0.68723179  0.46313162    -0.74500
O414        O  0.30962690  0.77901511  0.42924701    -0.75000
O415        O  0.26951776  0.74984843  0.37580668    -0.74900
O416        O  0.22247976  0.74754705  0.37943379    -0.74700
C417        C  0.19575549  0.80272299  0.45318555     0.77100
C418        C  0.25593185  0.74556914  0.53629768     0.77600
C419        C  0.19480332  0.69122495  0.45550877     0.76600
C420        C  0.30394282  0.68935545  0.44060992     0.76900
C421        C  0.30813213  0.79977522  0.44812631     0.78100
C422        C  0.24526110  0.74932120  0.36306388     0.77100
C423        C  0.47381066  0.98440721  0.52204299     0.80200
N424        N  0.98945638  0.00493780  0.50754181    -0.78100
C425        C  0.00398494  0.52409774  0.52491773     0.82600
N426        N  0.00231863  0.52266281  0.55673387    -0.78000
C427        C  0.98654488  0.50251149  0.57138675     0.82700
N428        N  0.47249308  0.98336275  0.55384852    -0.79800
C429        C  0.17259012  0.66927988  0.45976253    -0.03200
C430        C  0.17753965  0.64620308  0.47962321    -0.05800
C431        C  0.15609461  0.62671856  0.48622036    -0.20900
C432        C  0.12919214  0.62956153  0.47301305     0.24800
C433        C  0.12433980  0.65205162  0.45220054    -0.18500
C434        C  0.14590553  0.67172847  0.44561727    -0.08400
C435        C  0.10649102  0.61002737  0.48400428    -0.18700
C436        C  0.08210267  0.60481593  0.46897783    -0.23500
C437        C  0.06045406  0.58550124  0.48286163     0.26900
C438        C  0.04516986  0.56698523  0.46374162    -0.20300
C439        C  0.02640945  0.54718255  0.47713985    -0.09900
C440        C  0.02227203  0.54596619  0.50987729    -0.10500
C441        C  0.03663148  0.56553236  0.52869930    -0.03400
C442        C  0.05539452  0.58503917  0.51539072    -0.18500
H443        H  0.19783983  0.64351143  0.49079459     0.10600
H444        H  0.16039871  0.60961638  0.50233321     0.10600
H445        H  0.10371064  0.65518686  0.44199824     0.10300
H446        H  0.14140783  0.68930063  0.43024012     0.11400
H447        H  0.11047122  0.59874894  0.50570300     0.11500
H448        H  0.07856592  0.61349406  0.44580849     0.13400
H449        H  0.04849214  0.56718633  0.43855998     0.09900
H450        H  0.01568159  0.53248569  0.46195054     0.12000
H451        H  0.03375513  0.56559924  0.55393220     0.08600
H452        H  0.06609576  0.59970256  0.53068420     0.11400
C453        C  0.45786866  0.96335129  0.50390456    -0.03200
C454        C  0.44361177  0.97101623  0.47655415    -0.05800
C455        C  0.42560916  0.95176065  0.46184861    -0.20900
C456        C  0.42203904  0.92439733  0.47392719     0.24800
C457        C  0.43718221  0.91645747  0.50067218    -0.18500
C458        C  0.45477314  0.93580541  0.51558096    -0.08400
C459        C  0.39985809  0.90573296  0.46094740    -0.18700
C460        C  0.40154511  0.87742642  0.46192496    -0.23500
C461        C  0.37703005  0.85890106  0.45522560     0.26900
C462        C  0.38166126  0.83206788  0.44235083    -0.20300
C463        C  0.35907158  0.81317152  0.43885064    -0.09900
C464        C  0.33158699  0.82052447  0.44906693    -0.10500
C465        C  0.32695313  0.84750091  0.46170169    -0.03400
C466        C  0.34939059  0.86656838  0.46456182    -0.18500
H467        H  0.44506465  0.99232321  0.46767848     0.10600
H468        H  0.41381817  0.95847860  0.44155701     0.10600
H469        H  0.43431275  0.89581393  0.51112542     0.10300
H470        H  0.46543165  0.92944448  0.53677502     0.11400
H471        H  0.38111542  0.91562646  0.45133254     0.11500
H472        H  0.42126497  0.86743810  0.46865505     0.13400
H473        H  0.40285523  0.82561059  0.43537603     0.09900
H474        H  0.36329287  0.79245309  0.42922144     0.12000
H475        H  0.30601255  0.85373754  0.46980727     0.08600
H476        H  0.34528102  0.88683492  0.47535129     0.11400
C477        C  0.04078620  0.96034012  0.39318666    -0.03200
C478        C  0.03116584  0.94731382  0.42098987    -0.05800
C479        C  0.04798146  0.92701282  0.43579281    -0.20900
C480        C  0.07495210  0.92018041  0.42359205     0.24800
C481        C  0.08488312  0.93410040  0.39646522    -0.18500
C482        C  0.06792484  0.95379704  0.38137000    -0.08400
C483        C  0.09148527  0.89674800  0.43739329    -0.18700
C484        C  0.12004125  0.89690679  0.43738266    -0.23500
C485        C  0.13748472  0.87201659  0.44548822     0.26900
C486        C  0.16491486  0.87630834  0.45688202    -0.20300
C487        C  0.18336721  0.85357984  0.46083605    -0.09900
C488        C  0.17499039  0.82611959  0.45268200    -0.10500
C489        C  0.14728098  0.82170459  0.44191951    -0.03400
C490        C  0.12862463  0.84440216  0.43854015    -0.18500
H491        H  0.01022364  0.95187985  0.43043979     0.10600
H492        H  0.03979701  0.91635079  0.45651104     0.10600
H493        H  0.10525310  0.92885418  0.38600456     0.10300
H494        H  0.07586134  0.96355712  0.35999099     0.11400
H495        H  0.07992994  0.87882305  0.44706632     0.11500
H496        H  0.13128746  0.91601748  0.43048713     0.13400
H497        H  0.17231403  0.89742319  0.46204727     0.09900
H498        H  0.20463254  0.85769893  0.46897212     0.12000
H499        H  0.14024519  0.80078584  0.43540230     0.08600
H500        H  0.10784668  0.84046010  0.42898299     0.11400
C501        C  0.32397216  0.66615598  0.43389506    -0.03200
C502        C  0.33325019  0.66185841  0.40287713    -0.05800
C503        C  0.35148437  0.63974234  0.39546466    -0.20900
C504        C  0.36155597  0.62182268  0.41892843     0.24800
C505        C  0.35258920  0.62607973  0.45017048    -0.18500
C506        C  0.33358840  0.64795711  0.45754360    -0.08400
C507        C  0.38073566  0.59870845  0.40911372    -0.18700
C508        C  0.40267276  0.58925085  0.42604566    -0.23500
C509        C  0.42436478  0.56992150  0.41224318     0.26900
C510        C  0.44018410  0.55206693  0.43163584    -0.20300
C511        C  0.46059092  0.53378411  0.41865457    -0.09900
C512        C  0.46549789  0.53305585  0.38607112    -0.10500
C513        C  0.45030846  0.55166310  0.36695189    -0.03400
C514        C  0.43030192  0.56997904  0.37982106    -0.18500
H515        H  0.32594633  0.67533119  0.38412709     0.10600
H516        H  0.35800466  0.63677708  0.37122414     0.10600
H517        H  0.35970555  0.61224180  0.46865084     0.10300
H518        H  0.32662360  0.65081166  0.48163588     0.11400
H519        H  0.37781438  0.59081012  0.38551242     0.11500
H520        H  0.40540646  0.59651300  0.44994951     0.13400
H521        H  0.43655828  0.55206745  0.45677217     0.09900
H522        H  0.47243677  0.52017134  0.43400475     0.12000
H523        H  0.45393346  0.55231350  0.34183272     0.08600
H524        H  0.41992350  0.58448308  0.36414145     0.11400
C525        C  0.24370265  0.75076528  0.32850022    -0.03200
C526        C  0.21952348  0.76156763  0.31384225    -0.05800
C527        C  0.21861732  0.76370458  0.28112666    -0.20900
C528        C  0.24146506  0.75427875  0.26251837     0.24800
C529        C  0.26553628  0.74322840  0.27716295    -0.18500
C530        C  0.26672491  0.74170963  0.30983004    -0.08400
C531        C  0.24035876  0.75709839  0.22795242    -0.18700
C532        C  0.25109615  0.73729104  0.20865919    -0.23500
C533        C  0.25085390  0.73992343  0.17407006     0.29500
C534        C  0.24704802  0.71563734  0.15592429    -0.20300
C535        C  0.24786727  0.71719555  0.12321889    -0.09900
C536        C  0.25327959  0.74300811  0.10796488    -0.10500
C537        C  0.25744191  0.76732133  0.12617618    -0.03400
C538        C  0.25600461  0.76584534  0.15895496    -0.18500
H539        H  0.20157009  0.76887946  0.32769534     0.10600
H540        H  0.19995826  0.77248901  0.27029930     0.10600
H541        H  0.28370888  0.73634560  0.26339378     0.10300
H542        H  0.28563060  0.73330272  0.32050157     0.11400
H543        H  0.22945096  0.77520136  0.21822152     0.11500
H544        H  0.25926518  0.71783503  0.21851606     0.13400
H545        H  0.24328791  0.69541730  0.16711466     0.09900
H546        H  0.24469681  0.69805681  0.10987580     0.12000
H547        H  0.26162795  0.78750039  0.11509700     0.08600
H548        H  0.25962202  0.78480594  0.17245223     0.11400
C549        C  0.28480284  0.79025178  0.01065904    -0.03200
C550        C  0.29203114  0.78940363  0.97852682    -0.05800
C551        C  0.31013629  0.80994515  0.96531000    -0.20900
C552        C  0.32150909  0.83144871  0.98401766     0.24800
C553        C  0.31295235  0.83313296  0.01563923    -0.18500
C554        C  0.29492701  0.81282094  0.02876058    -0.08400
C555        C  0.34254578  0.85179904  0.97063432    -0.18700
C556        C  0.36422881  0.86149714  0.98789770    -0.23500
C557        C  0.38599010  0.88215940  0.97693238     0.26900
C558        C  0.41189921  0.88300124  0.99264735    -0.20300
C559        C  0.43220964  0.90354181  0.98541387    -0.09900
C560        C  0.42704303  0.92413378  0.96245129    -0.10500
C561        C  0.40126970  0.92305921  0.94619767    -0.03400
C562        C  0.38092149  0.90223269  0.95332483    -0.18500
H563        H  0.28445298  0.77244241  0.96384666     0.10600
H564        H  0.31608016  0.80845627  0.94074362     0.10600
H565        H  0.32038561  0.85007464  0.03042452     0.10300
H566        H  0.28937748  0.81458818  0.05340464     0.11400
H567        H  0.34103057  0.85757610  0.94608277     0.11500
H568        H  0.36682954  0.85312111  0.01141187     0.13400
H569        H  0.41631923  0.86788478  0.01100723     0.09900
H570        H  0.45176786  0.90361646  0.99842018     0.12000
H571        H  0.39657412  0.93864569  0.92844648     0.08600
H572        H  0.36094333  0.90255767  0.94116393     0.11400
C573        C  0.07761592  0.58502758  0.94461743    -0.03200
C574        C  0.09713816  0.58811943  0.91954152    -0.05800
C575        C  0.11956015  0.60753007  0.92139481    -0.20900
C576        C  0.12325500  0.62362539  0.94861356     0.24800
C577        C  0.10318973  0.62122484  0.97319067    -0.18500
C578        C  0.08058203  0.60226632  0.97114659    -0.08400
C579        C  0.14831410  0.64246685  0.95158226    -0.18700
C580        C  0.16237221  0.64397146  0.97875817    -0.23500
C581        C  0.18665979  0.66303679  0.98513367     0.26900
C582        C  0.20370007  0.65649639  0.01076789    -0.20300
C583        C  0.22341064  0.67586848  0.02177498    -0.09900
C584        C  0.22650235  0.70244629  0.00755186    -0.10500
C585        C  0.21110398  0.70834966  0.98034954    -0.03400
C586        C  0.19119910  0.68877515  0.96920828    -0.18500
H587        H  0.09528022  0.57529874  0.89867663     0.10600
H588        H  0.13459504  0.60926131  0.90203925     0.10600
H589        H  0.10508721  0.63391523  0.99415164     0.10300
H590        H  0.06588650  0.60052915  0.99081247     0.11400
H591        H  0.15592117  0.65393950  0.93107835     0.11500
H592        H  0.15572242  0.63007811  0.99781321     0.13400
H593        H  0.20080886  0.63679089  0.02332686     0.09900
H594        H  0.23522131  0.67059342  0.04257510     0.12000
H595        H  0.21298362  0.72875220  0.96905966     0.08600
H596        H  0.17822887  0.69462248  0.94952989     0.11400
C597        C  0.98452779  0.50156804  0.60609246    -0.03200
C598        C  0.46466176  0.48386628  0.62127675    -0.05800
C599        C  0.46256199  0.48322110  0.65399920    -0.20900
C600        C  0.48053607  0.49987255  0.67226330     0.24800
C601        C  0.00023045  0.01781843  0.65712696    -0.18500
C602        C  0.00219021  0.01863827  0.62441272    -0.08400
C603        C  0.47776839  0.49854548  0.70695414    -0.18700
C604        C  0.99974378  0.00339183  0.72600112    -0.23500
C605        C  0.99773176  0.00167451  0.76070665     0.26900
C606        C  0.02255627  0.99637585  0.77738419    -0.20300
C607        C  0.02211088  0.99595413  0.81008457    -0.09900
C608        C  0.99679200  0.50098467  0.82695127    -0.10500
C609        C  0.47176931  0.50594534  0.81032980    -0.03400
C610        C  0.47223568  0.50644031  0.77748082    -0.18500
H611        H  0.45055376  0.47062357  0.60789663     0.10600
H612        H  0.44703630  0.46944091  0.66510313     0.10600
H613        H  0.01382767  0.03162241  0.67042375     0.10300
H614        H  0.01757825  0.03267291  0.61350172     0.11400
H615        H  0.45753430  0.49176025  0.71686007     0.11500
H616        H  0.02060243  0.00739657  0.71578230     0.13400
H617        H  0.04245314  0.99267985  0.76504562     0.09900
H618        H  0.04172766  0.99188175  0.82218103     0.12000
H619        H  0.45201900  0.51019046  0.82270459     0.08600
H620        H  0.45282862  0.51135267  0.76542342     0.11400
C621        C  0.01001826  0.49473238  0.29055645    -0.03200
C622        C  0.52942676  0.97676244  0.27524199    -0.05800
C623        C  0.53128169  0.97615790  0.24249135    -0.20900
C624        C  0.51399914  0.99362348  0.22432446     0.24800
C625        C  0.99432928  0.51135706  0.23961937    -0.18500
C626        C  0.99245102  0.51195360  0.27232110    -0.08400
C627        C  0.51609962  0.99183112  0.18958524    -0.18700
C628        C  0.00800211  0.51282035  0.17037687    -0.23500
C629        C  0.00870033  0.51077702  0.13561127     0.26900
C630        C  0.00834886  0.53574997  0.11792043    -0.20300
C631        C  0.00753755  0.53483890  0.08519836    -0.09900
C632        C  0.50690974  0.50885240  0.06940902    -0.10500
C633        C  0.50737135  0.98381881  0.08708795    -0.03400
C634        C  0.50811266  0.98473365  0.11982134    -0.18500
H635        H  0.54316430  0.96308147  0.28851990     0.10600
H636        H  0.54635975  0.96205340  0.23129594     0.10600
H637        H  0.97987681  0.52437578  0.22652105     0.10300
H638        H  0.97701960  0.52581442  0.28327536     0.11400
H639        H  0.52549144  0.97288583  0.17973235     0.11500
H640        H  0.00122007  0.53277795  0.18036263     0.13400
H641        H  0.00858132  0.55607950  0.12948052     0.09900
H642        H  0.00726084  0.55451980  0.07229258     0.12000
H643        H  0.50666736  0.96345252  0.07565959     0.08600
H644        H  0.50743573  0.96499725  0.13253811     0.11400
C645        C  0.25824019  0.74506969  0.57091972    -0.03200
C646        C  0.25991376  0.71928266  0.58710688    -0.05800
C647        C  0.26216107  0.71876311  0.61973087    -0.20900
C648        C  0.26256696  0.74392942  0.63696823     0.24800
C649        C  0.26137994  0.76978328  0.62077237    -0.18500
C650        C  0.25911718  0.77031301  0.58812496    -0.08400
C651        C  0.26452303  0.74228998  0.67166056    -0.18700
C652        C  0.25505197  0.76277460  0.69095074    -0.23500
C653        C  0.25484325  0.76025129  0.72565442     0.26900
C654        C  0.23498921  0.77603988  0.74295134    -0.20300
C655        C  0.23338194  0.77376434  0.77556136    -0.09900
C656        C  0.25182526  0.75577426  0.79171818    -0.10500
C657        C  0.27229180  0.74053746  0.77447233    -0.03400
C658        C  0.27385545  0.74279194  0.74178212    -0.18500
H659        H  0.25942923  0.69943633  0.57458976     0.10600
H660        H  0.26326160  0.69858119  0.63159017     0.10600
H661        H  0.26259818  0.78966713  0.63307265     0.10300
H662        H  0.25822447  0.79053698  0.57635526     0.11400
H663        H  0.27210373  0.72264508  0.68154832     0.11500
H664        H  0.24495945  0.78126203  0.68111522     0.13400
H665        H  0.22029242  0.78984514  0.73113138     0.09900
H666        H  0.21746130  0.78596084  0.78804610     0.12000
H667        H  0.28707549  0.72677584  0.78619137     0.08600
H668        H  0.29010565  0.73103283  0.72934978     0.11400
C669        C  0.28265131  0.71155669  0.88967584    -0.03200
C670        C  0.27438076  0.69833139  0.91789249    -0.05800
C671        C  0.29156482  0.67749505  0.93117383    -0.20900
C672        C  0.31759611  0.67024333  0.91694848     0.24800
C673        C  0.32604830  0.68393770  0.88912630    -0.18500
C674        C  0.30873168  0.70423037  0.87560173    -0.08400
C675        C  0.33509661  0.64721253  0.92997994    -0.18700
C676        C  0.36360647  0.64853451  0.92932160    -0.23500
C677        C  0.38217461  0.62465231  0.93784356     0.26900
C678        C  0.40906089  0.63043709  0.94991713    -0.20300
C679        C  0.42854177  0.60872476  0.95457813    -0.09900
C680        C  0.42178591  0.58081693  0.94643141    -0.10500
C681        C  0.39460847  0.57491126  0.93491747    -0.03400
C682        C  0.37488926  0.59660528  0.93085586    -0.18500
H683        H  0.25428255  0.70341987  0.92907890     0.10600
H684        H  0.28453695  0.66700563  0.95249681     0.10600
H685        H  0.34567001  0.67831777  0.87721169     0.10300
H686        H  0.31569426  0.71402375  0.85384973     0.11400
H687        H  0.32440511  0.62896004  0.94009705     0.11500
H688        H  0.37393153  0.66803008  0.92199366     0.13400
H689        H  0.41520945  0.65193053  0.95516517     0.09900
H690        H  0.44933289  0.61399125  0.96335339     0.12000
H691        H  0.38880124  0.55361477  0.92842878     0.08600
H692        H  0.35452281  0.59159701  0.92083737     0.11400
C693        C  0.20570981  0.78304354  0.89079522    -0.03200
C694        C  0.20617630  0.78710277  0.92347550    -0.05800
C695        C  0.18745150  0.80630268  0.93789876    -0.20900
C696        C  0.16828880  0.82184295  0.91981982     0.24800
C697        C  0.16683955  0.81647540  0.88751553    -0.18500
C698        C  0.18533978  0.79748570  0.87322056    -0.08400
C699        C  0.15000827  0.84388286  0.93435998    -0.18700
C700        C  0.14417942  0.86776804  0.91854596    -0.23500
C701        C  0.12406551  0.89014222  0.92871425     0.26900
C702        C  0.12373363  0.91513556  0.91109302    -0.20300
C703        C  0.10334881  0.93577191  0.91684435    -0.09900
C704        C  0.08255197  0.93195810  0.94038376    -0.10500
C705        C  0.08334320  0.90736807  0.95888241    -0.03400
C706        C  0.10390356  0.88657968  0.95309744    -0.18500
H707        H  0.22152685  0.77618005  0.93768530     0.10600
H708        H  0.18861448  0.80975968  0.96294234     0.10600
H709        H  0.15148396  0.82716047  0.87309720     0.10300
H710        H  0.18386873  0.79447042  0.84813158     0.11400
H711        H  0.14206313  0.84063382  0.95808106     0.11500
H712        H  0.15477139  0.87115733  0.89603998     0.13400
H713        H  0.13892728  0.91845120  0.89212855     0.09900
H714        H  0.10349078  0.95443727  0.90217772     0.12000
H715        H  0.06761794  0.90382876  0.97723415     0.08600
H716        H  0.10320286  0.86748412  0.96696658     0.11400
C717        C  0.76385027  0.23170404  0.87359831     0.80200
N718        N  0.74402406  0.24700690  0.88974776    -0.78100
C719        C  0.72693487  0.26526542  0.87416643     0.82600
N720        N  0.72982255  0.26787488  0.84256767    -0.78000
C721        C  0.74939890  0.25279645  0.82626811     0.82700
N722        N  0.76638124  0.23480171  0.84197925    -0.79800
Zn723      Zn  0.00505778  0.47233479  0.97559817     1.49700
Zn724      Zn  0.96551333  0.00181636  0.92438803     1.49400
Zn725      Zn  0.00059226  0.03972925  0.97333267     1.49100
Zn726      Zn  0.53358926  0.00725373  0.91942749     1.49500
O727        O  0.00099750  0.00525442  0.94814805    -1.84100
O728        O  0.97095829  0.44693795  0.97244115    -0.74800
O729        O  0.94062502  0.03597101  0.93216118    -0.74600
O730        O  0.00186258  0.03065224  0.01947681    -0.74100
O731        O  0.94300686  0.46669937  0.93722845    -0.74800
O732        O  0.00755120  0.48418844  0.02082855    -0.74400
O733        O  0.96555473  0.06262884  0.96466878    -0.75000
O734        O  0.55706369  0.04273346  0.92472959    -0.74400
O735        O  0.97400107  0.00027256  0.87744388    -0.75100
O736        O  0.53475962  0.06428928  0.96399614    -0.74500
O737        O  0.52089392  0.00510521  0.87500287    -0.75000
O738        O  0.55945395  0.47435611  0.92598270    -0.74900
O739        O  0.53994438  0.44925807  0.96459166    -0.74700
C740        C  0.94811302  0.44706462  0.95683736     0.77100
C741        C  0.94365731  0.05850005  0.94808444     0.77600
C742        C  0.00538612  0.00785053  0.03475991     0.76600
C743        C  0.55516948  0.06303415  0.94415471     0.76900
C744        C  0.49712266  0.00210757  0.86162575     0.78100
C745        C  0.55953243  0.45300432  0.94410807     0.77100
C746        C  0.74212090  0.22471528  0.02443789     0.80200
N747        N  0.75540897  0.24650927  0.00929618    -0.78100
C748        C  0.76843803  0.26715660  0.02620223     0.82600
N749        N  0.76750624  0.26595092  0.05811105    -0.78000
C750        C  0.75430212  0.24436449  0.07326977     0.82700
N751        N  0.74189781  0.22383954  0.05624179    -0.79800
C752        C  0.52220617  0.47897579  0.37483996     0.80200
N753        N  0.52451862  0.47873112  0.34303506    -0.78100
C754        C  0.50779768  0.99537407  0.32527611     0.82600
N755        N  0.98888006  0.01264553  0.33971585    -0.78000
C756        C  0.98627845  0.01339898  0.37146697     0.82700
N757        N  0.50288439  0.99623668  0.38908937    -0.79800
Zn758      Zn  0.71470265  0.24631360  0.42629890     1.49700
Zn759      Zn  0.75189444  0.27993759  0.47627235     1.49400
Zn760      Zn  0.75297420  0.21237999  0.47565522     1.49100
Zn761      Zn  0.78262356  0.24689071  0.42032564     1.49500
O762        O  0.75042331  0.24638349  0.44963657    -1.84100
O763        O  0.69138366  0.28091993  0.43648985    -0.74800
O764        O  0.75346386  0.26910859  0.52211990    -0.74600
O765        O  0.71742820  0.18931932  0.47136154    -0.74100
O766        O  0.71809836  0.30520427  0.46942356    -0.74800
O767        O  0.69082083  0.21180883  0.43682173    -0.74400
O768        O  0.75656307  0.22238002  0.52126296    -0.75000
O769        O  0.80445894  0.21084527  0.42272011    -0.74400
O770        O  0.78698063  0.30286916  0.46670926    -0.75100
O771        O  0.78603603  0.18723091  0.46313189    -0.74500
O772        O  0.80962724  0.27901417  0.42924788    -0.75000
O773        O  0.76951779  0.24984803  0.37580724    -0.74900
O774        O  0.72247979  0.24754662  0.37943464    -0.74700
C775        C  0.69575584  0.30272275  0.45318586     0.77100
C776        C  0.75593151  0.24556837  0.53629810     0.77600
C777        C  0.69480354  0.19122415  0.45550900     0.76600
C778        C  0.80394254  0.18935447  0.44061000     0.76900
C779        C  0.80813269  0.29977413  0.44812744     0.78100
C780        C  0.74526105  0.24932080  0.36306462     0.77100
C781        C  0.97381295  0.48440519  0.52204245     0.80200
N782        N  0.48945837  0.50493601  0.50754133    -0.78100
C783        C  0.50398292  0.02409957  0.52491816     0.82600
N784        N  0.50231629  0.02266497  0.55673429    -0.78000
C785        C  0.48654224  0.00251390  0.57138719     0.82700
N786        N  0.97249568  0.48336041  0.55384800    -0.79800
C787        C  0.67259043  0.16927896  0.45976241    -0.03200
C788        C  0.67754005  0.14620183  0.47962262    -0.05800
C789        C  0.65609500  0.12671729  0.48621967    -0.20900
C790        C  0.62919242  0.12956059  0.47301273     0.24800
C791        C  0.62434003  0.15205093  0.45220052    -0.18500
C792        C  0.64590576  0.17172783  0.44561731    -0.08400
C793        C  0.60649116  0.11002666  0.48400420    -0.18700
C794        C  0.58210265  0.10481561  0.46897781    -0.23500
C795        C  0.56045369  0.08550143  0.48286181     0.26900
C796        C  0.54516907  0.06698564  0.46374193    -0.20300
C797        C  0.52640814  0.04718353  0.47714023    -0.09900
C798        C  0.52227055  0.04596752  0.50987765    -0.10500
C799        C  0.53663046  0.06553347  0.52869955    -0.03400
C800        C  0.55539414  0.08503979  0.51539099    -0.18500
H801        H  0.69784032  0.14350998  0.49079376     0.10600
H802        H  0.66039915  0.10961486  0.50233222     0.10600
H803        H  0.60371076  0.15518638  0.44199852     0.10300
H804        H  0.64140798  0.18930024  0.43024049     0.11400
H805        H  0.61047128  0.09874824  0.50570298     0.11500
H806        H  0.57856600  0.11349373  0.44580842     0.13400
H807        H  0.54849141  0.06718652  0.43856031     0.09900
H808        H  0.51567997  0.03248684  0.46195097     0.12000
H809        H  0.53375400  0.06560052  0.55393243     0.08600
H810        H  0.56609576  0.09970306  0.53068442     0.11400
C811        C  0.95787069  0.46334944  0.50390402    -0.03200
C812        C  0.94361350  0.47101448  0.47655392    -0.05800
C813        C  0.92561054  0.45175925  0.46184838    -0.20900
C814        C  0.92204042  0.42439589  0.47392691     0.24800
C815        C  0.93718388  0.41645576  0.50067164    -0.18500
C816        C  0.95477514  0.43580355  0.51558025    -0.08400
C817        C  0.89985922  0.40573163  0.46094747    -0.18700
C818        C  0.90154621  0.37742508  0.46192487    -0.23500
C819        C  0.87703096  0.35889974  0.45522612     0.26900
C820        C  0.88166189  0.33206658  0.44235129    -0.20300
C821        C  0.85907216  0.31317024  0.43885147    -0.09900
C822        C  0.83158772  0.32052321  0.44906825    -0.10500
C823        C  0.82695409  0.34749959  0.46170330    -0.03400
C824        C  0.84939169  0.36656692  0.46456299    -0.18500
H825        H  0.94506635  0.49232145  0.46767845     0.10600
H826        H  0.91381933  0.45847745  0.44155698     0.10600
H827        H  0.93431440  0.39581218  0.51112483     0.10300
H828        H  0.96543384  0.42944243  0.53677412     0.11400
H829        H  0.88111637  0.41562521  0.45133314     0.11500
H830        H  0.92126623  0.36743669  0.46865441     0.13400
H831        H  0.90285573  0.32560927  0.43537606     0.09900
H832        H  0.86329328  0.29245185  0.42922204     0.12000
H833        H  0.80601362  0.35373631  0.46980928     0.08600
H834        H  0.84528235  0.38683338  0.47535259     0.11400
C835        C  0.54078709  0.46034066  0.39318744    -0.03200
C836        C  0.53116665  0.44731460  0.42099084    -0.05800
C837        C  0.54798208  0.42701332  0.43579379    -0.20900
C838        C  0.57495261  0.42018054  0.42359284     0.24800
C839        C  0.58488362  0.43410025  0.39646583    -0.18500
C840        C  0.56792557  0.45379707  0.38137062    -0.08400
C841        C  0.59148562  0.39674800  0.43739415    -0.18700
C842        C  0.62004165  0.39690687  0.43738377    -0.23500
C843        C  0.63748510  0.37201654  0.44548911     0.26900
C844        C  0.66491517  0.37630815  0.45688321    -0.20300
C845        C  0.68336745  0.35357958  0.46083692    -0.09900
C846        C  0.67499081  0.32611945  0.45268232    -0.10500
C847        C  0.64728150  0.32170465  0.44191950    -0.03400
C848        C  0.62862507  0.34440220  0.43854039    -0.18500
H849        H  0.51022456  0.45188104  0.43044091     0.10600
H850        H  0.53979761  0.41635144  0.45651217     0.10600
H851        H  0.60525346  0.42885369  0.38600511     0.10300
H852        H  0.57586212  0.46355694  0.35999152     0.11400
H853        H  0.57993015  0.37882299  0.44706694     0.11500
H854        H  0.63128789  0.41601764  0.43048848     0.13400
H855        H  0.67231429  0.39742293  0.46204895     0.09900
H856        H  0.70463265  0.35769856  0.46897328     0.12000
H857        H  0.64024579  0.30078603  0.43540185     0.08600
H858        H  0.60784716  0.34046024  0.42898299     0.11400
C859        C  0.82397160  0.16615484  0.43389484    -0.03200
C860        C  0.83324972  0.16185759  0.40287685    -0.05800
C861        C  0.85148360  0.13974132  0.39546421    -0.20900
C862        C  0.86155483  0.12182123  0.41892776     0.24800
C863        C  0.85258791  0.12607790  0.45016982    -0.18500
C864        C  0.83358739  0.14795545  0.45754314    -0.08400
C865        C  0.88073440  0.09870701  0.40911289    -0.18700
C866        C  0.90267189  0.08925002  0.42604465    -0.23500
C867        C  0.92436391  0.06992072  0.41224209     0.26900
C868        C  0.94018368  0.05206661  0.43163474    -0.20300
C869        C  0.96059037  0.03378365  0.41865360    -0.09900
C870        C  0.96549684  0.03305492  0.38607007    -0.10500
C871        C  0.95030702  0.05166179  0.36695069    -0.03400
C872        C  0.93030051  0.06997783  0.37981984    -0.18500
H873        H  0.82594620  0.17533076  0.38412695     0.10600
H874        H  0.85800402  0.13677625  0.37122370     0.10600
H875        H  0.85970397  0.11223959  0.46864999     0.10300
H876        H  0.82662247  0.15080974  0.48163541     0.11400
H877        H  0.87781282  0.09080842  0.38551171     0.11500
H878        H  0.90540587  0.09651261  0.44994832     0.13400
H879        H  0.93655824  0.05206756  0.45677108     0.09900
H880        H  0.97243648  0.02017116  0.43400388     0.12000
H881        H  0.95393166  0.05231177  0.34183143     0.08600
H882        H  0.91992170  0.08448154  0.36414012     0.11400
C883        C  0.74370233  0.25076491  0.32850102    -0.03200
C884        C  0.71952318  0.26156754  0.31384334    -0.05800
C885        C  0.71861664  0.26370457  0.28112781    -0.20900
C886        C  0.74146408  0.25427845  0.26251925     0.24800
C887        C  0.76553532  0.24322765  0.27716347    -0.18500
C888        C  0.76672424  0.24170892  0.30983056    -0.08400
C889        C  0.74035753  0.25709841  0.22795333    -0.18700
C890        C  0.75109451  0.23729102  0.20865986    -0.23500
C891        C  0.75085217  0.23992379  0.17407078     0.29500
C892        C  0.74704541  0.21563804  0.15592478    -0.20300
C893        C  0.74786471  0.21719645  0.12321941    -0.09900
C894        C  0.75327795  0.24300898  0.10796566    -0.10500
C895        C  0.75744109  0.26732195  0.12617717    -0.03400
C896        C  0.75600376  0.26584559  0.15895590    -0.18500
H897        H  0.70157007  0.26887959  0.32769666     0.10600
H898        H  0.69995758  0.27248933  0.27030072     0.10600
H899        H  0.78370770  0.23634459  0.26339405     0.10300
H900        H  0.78562991  0.23330177  0.32050187     0.11400
H901        H  0.72945001  0.27520169  0.21822266     0.11500
H902        H  0.75926325  0.21783475  0.21851644     0.13400
H903        H  0.74328461  0.19541806  0.16711496     0.09900
H904        H  0.74469357  0.19805789  0.10987618     0.12000
H905        H  0.76162785  0.28750099  0.11509821     0.08600
H906        H  0.75962184  0.28480589  0.17245337     0.11400
C907        C  0.78480186  0.29025237  0.01065968    -0.03200
C908        C  0.79203070  0.28940372  0.97852766    -0.05800
C909        C  0.81013611  0.30994489  0.96531076    -0.20900
C910        C  0.82150869  0.33144873  0.98401812     0.24800
C911        C  0.81295146  0.33313358  0.01563954    -0.18500
C912        C  0.79492578  0.31282180  0.02876101    -0.08400
C913        C  0.84254562  0.35179878  0.97063473    -0.18700
C914        C  0.86422827  0.36149740  0.98789836    -0.23500
C915        C  0.88598969  0.38215956  0.97693299     0.26900
C916        C  0.91189816  0.38300232  0.99264923    -0.20300
C917        C  0.93220854  0.40354293  0.98541573    -0.09900
C918        C  0.92704266  0.42413394  0.96245189    -0.10500
C919        C  0.90127001  0.42305841  0.94619705    -0.03400
C920        C  0.88092173  0.40223188  0.95332416    -0.18500
H921        H  0.78445277  0.27244231  0.96384769     0.10600
H922        H  0.81608034  0.30845554  0.94074454     0.10600
H923        H  0.82038454  0.35007551  0.03042463     0.10300
H924        H  0.78937582  0.31458942  0.05340495     0.11400
H925        H  0.84103086  0.35757524  0.94608299     0.11500
H926        H  0.86682852  0.35312195  0.01141288     0.13400
H927        H  0.91631764  0.36788662  0.01101009     0.09900
H928        H  0.95176618  0.40361839  0.99842303     0.12000
H929        H  0.89657499  0.43864412  0.92844486     0.08600
H930        H  0.86094405  0.40255611  0.94116221     0.11400
C931        C  0.57761524  0.08502809  0.94461788    -0.03200
C932        C  0.59713754  0.08812017  0.91954203    -0.05800
C933        C  0.61955943  0.10753106  0.92139549    -0.20900
C934        C  0.62325386  0.12362633  0.94861448     0.24800
C935        C  0.60318849  0.12122555  0.97319146    -0.18500
C936        C  0.58058104  0.10226683  0.97114706    -0.08400
C937        C  0.64831278  0.14246781  0.95158352    -0.18700
C938        C  0.66237081  0.14397255  0.97875932    -0.23500
C939        C  0.68665833  0.16303779  0.98513488     0.26900
C940        C  0.70369874  0.15649725  0.01076895    -0.20300
C941        C  0.72340939  0.17586935  0.02177580    -0.09900
C942        C  0.72650108  0.20244717  0.00755270    -0.10500
C943        C  0.71110254  0.20835060  0.98035056    -0.03400
C944        C  0.69119759  0.18877612  0.96920956    -0.18500
H945        H  0.59527980  0.07529948  0.89867709     0.10600
H946        H  0.63459450  0.10926249  0.90204002     0.10600
H947        H  0.60508571  0.13391589  0.99415253     0.10300
H948        H  0.56588541  0.10052946  0.99081277     0.11400
H949        H  0.65591997  0.15394040  0.93107973     0.11500
H950        H  0.65572099  0.13007925  0.99781429     0.13400
H951        H  0.70080760  0.13679173  0.02332794     0.09900
H952        H  0.73522016  0.17059432  0.04257582     0.12000
H953        H  0.71298206  0.22875317  0.96906068     0.08600
H954        H  0.67822722  0.19462350  0.94953136     0.11400
C955        C  0.48452515  0.00157054  0.60609286    -0.03200
C956        C  0.96465894  0.98386894  0.62127722    -0.05800
C957        C  0.96255967  0.98322358  0.65399962    -0.20900
C958        C  0.98053409  0.99987456  0.67226369     0.24800
C959        C  0.50023244  0.51781647  0.65712665    -0.18500
C960        C  0.50219246  0.51863605  0.62441243    -0.08400
C961        C  0.97776686  0.99854711  0.70695454    -0.18700
C962        C  0.49974507  0.50338994  0.72600108    -0.23500
C963        C  0.49773265  0.50167294  0.76070664     0.26900
C964        C  0.52255684  0.49637378  0.77738460    -0.20300
C965        C  0.52211113  0.49595247  0.81008500    -0.09900
C966        C  0.49679173  0.00098548  0.82695117    -0.10500
C967        C  0.97176874  0.00594569  0.81033013    -0.03400
C968        C  0.97223490  0.00644105  0.77748124    -0.18500
H969        H  0.95055061  0.97062649  0.60789719     0.10600
H970        H  0.94703400  0.96944350  0.66510361     0.10600
H971        H  0.51382938  0.53162071  0.67042351     0.10300
H972        H  0.51758037  0.53267082  0.61350151     0.11400
H973        H  0.95753297  0.99176147  0.71686071     0.11500
H974        H  0.52060385  0.50739424  0.71578247     0.13400
H975        H  0.54245370  0.49267711  0.76504632     0.09900
H976        H  0.54172770  0.49187972  0.82218172     0.12000
H977        H  0.95201839  0.01019015  0.82270516     0.08600
H978        H  0.95282763  0.01135305  0.76542419     0.11400
C979        C  0.51001669  0.99473060  0.29055557    -0.03200
C980        C  0.02942984  0.47676580  0.27524281    -0.05800
C981        C  0.03128473  0.47616148  0.24249213    -0.20900
C982        C  0.01400070  0.49362562  0.22432528     0.24800
C983        C  0.49432910  0.01135652  0.23961846    -0.18500
C984        C  0.49245085  0.01195322  0.27232020    -0.08400
C985        C  0.01610115  0.49183329  0.18958603    -0.18700
C986        C  0.50800213  0.01281879  0.17037612    -0.23500
C987        C  0.50870032  0.01077562  0.13561052     0.26900
C988        C  0.50834963  0.03574868  0.11791988    -0.20300
C989        C  0.50753833  0.03483804  0.08519777    -0.09900
C990        C  0.00690983  0.00885159  0.06940829    -0.10500
C991        C  0.00737203  0.48381975  0.08708889    -0.03400
C992        C  0.00811339  0.48473486  0.11982234    -0.18500
H993        H  0.04316857  0.46308594  0.28852067     0.10600
H994        H  0.04636392  0.46205823  0.23129663     0.10600
H995        H  0.47987769  0.02437640  0.22652010     0.10300
H996        H  0.47702059  0.02581535  0.28327442     0.11400
H997        H  0.02549423  0.47288860  0.17973311     0.11500
H998        H  0.50122139  0.03277679  0.18036192     0.13400
H999        H  0.50858267  0.05607807  0.12948017     0.09900
H1000       H  0.50726224  0.05451911  0.07229215     0.12000
H1001       H  0.00666864  0.46345333  0.07566070     0.08600
H1002       H  0.00743708  0.46499856  0.13253939     0.11400
C1003       C  0.75823975  0.24506911  0.57092013    -0.03200
C1004       C  0.75991530  0.21928226  0.58710732    -0.05800
C1005       C  0.76216274  0.21876285  0.61973132    -0.20900
C1006       C  0.76256673  0.24392927  0.63696860     0.24800
C1007       C  0.76137769  0.26978298  0.62077267    -0.18500
C1008       C  0.75911484  0.27031251  0.58812532    -0.08400
C1009       C  0.76452289  0.24229007  0.67166090    -0.18700
C1010       C  0.75505077  0.26277425  0.69095106    -0.23500
C1011       C  0.75484219  0.26025110  0.72565481     0.26900
C1012       C  0.73498832  0.27603988  0.74295169    -0.20300
C1013       C  0.73338106  0.27376453  0.77556167    -0.09900
C1014       C  0.75182421  0.25577436  0.79171855    -0.10500
C1015       C  0.77229065  0.24053734  0.77447281    -0.03400
C1016       C  0.77385424  0.24279177  0.74178265    -0.18500
H1017       H  0.75943231  0.19943591  0.57459020     0.10600
H1018       H  0.76326486  0.19858100  0.63159064     0.10600
H1019       H  0.76259443  0.28966694  0.63307285     0.10300
H1020       H  0.75822057  0.29053640  0.57635563     0.11400
H1021       H  0.77210462  0.22264556  0.68154860     0.11500
H1022       H  0.74495734  0.28126117  0.68111550     0.13400
H1023       H  0.72029165  0.28984520  0.73113172     0.09900
H1024       H  0.71746056  0.28596122  0.78804636     0.12000
H1025       H  0.78707424  0.22677557  0.78619185     0.08600
H1026       H  0.79010435  0.23103252  0.72935044     0.11400
C1027       C  0.78265091  0.21155708  0.88967599    -0.03200
C1028       C  0.77438100  0.19833230  0.91789320    -0.05800
C1029       C  0.79156532  0.17749608  0.93117444    -0.20900
C1030       C  0.81759620  0.17024395  0.91694841     0.24800
C1031       C  0.82604774  0.18393782  0.88912569    -0.18500
C1032       C  0.80873094  0.20423043  0.87560119    -0.08400
C1033       C  0.83509695  0.14721330  0.92997977    -0.18700
C1034       C  0.86360678  0.14853486  0.92932023    -0.23500
C1035       C  0.88217504  0.12465274  0.93784215     0.26900
C1036       C  0.90906191  0.13043762  0.94991408    -0.20300
C1037       C  0.92854268  0.10872527  0.95457522    -0.09900
C1038       C  0.92178613  0.08081721  0.94643023    -0.10500
C1039       C  0.89460821  0.07491144  0.93491774    -0.03400
C1040       C  0.87488910  0.09660555  0.93085605    -0.18500
H1041       H  0.75428309  0.20342110  0.92908014     0.10600
H1042       H  0.78453793  0.16700708  0.95249787     0.10600
H1043       H  0.84566909  0.17831757  0.87721056     0.10300
H1044       H  0.81569307  0.21402342  0.85384876     0.11400
H1045       H  0.82440560  0.12896120  0.94009785     0.11500
H1046       H  0.87393175  0.16803012  0.92199130     0.13400
H1047       H  0.91521097  0.15193116  0.95516079     0.09900
H1048       H  0.94933422  0.11399185  0.96334922     0.12000
H1049       H  0.88880047  0.05361476  0.92843035     0.08600
H1050       H  0.85452218  0.09159714  0.92083879     0.11400
C1051       C  0.70570831  0.28304273  0.89079581    -0.03200
C1052       C  0.70617505  0.28710213  0.92347601    -0.05800
C1053       C  0.68745014  0.30630170  0.93789949    -0.20900
C1054       C  0.66828693  0.32184151  0.91982084     0.24800
C1055       C  0.66683733  0.31647373  0.88751664    -0.18500
C1056       C  0.68533774  0.29748435  0.87322136    -0.08400
C1057       C  0.65000650  0.34388145  0.93436105    -0.18700
C1058       C  0.64417758  0.36776658  0.91854710    -0.23500
C1059       C  0.62406417  0.39014106  0.92871567     0.26900
C1060       C  0.62373275  0.41513451  0.91109465    -0.20300
C1061       C  0.60334827  0.43577120  0.91684601    -0.09900
C1062       C  0.58255131  0.43195752  0.94038538    -0.10500
C1063       C  0.58334215  0.40736740  0.95888395    -0.03400
C1064       C  0.60390220  0.38657875  0.95309883    -0.18500
H1065       H  0.72152601  0.27617985  0.93768560     0.10600
H1066       H  0.68861348  0.30975886  0.96294299     0.10600
H1067       H  0.65148137  0.32715849  0.87309853     0.10300
H1068       H  0.68386645  0.29446894  0.84813240     0.11400
H1069       H  0.64206170  0.34063263  0.95808226     0.11500
H1070       H  0.65476925  0.37115569  0.89604094     0.13400
H1071       H  0.63892648  0.41844998  0.89213022     0.09900
H1072       H  0.60349053  0.45443665  0.90217946     0.12000
H1073       H  0.56761680  0.40382823  0.97723565     0.08600
H1074       H  0.60320119  0.36748312  0.96696779     0.11400
C1075       C  0.76385098  0.73170380  0.87359804     0.80200
N1076       N  0.74402502  0.74700704  0.88974745    -0.78100
C1077       C  0.72693616  0.76526581  0.87416602     0.82600
N1078       N  0.72982391  0.76787511  0.84256727    -0.78000
C1079       C  0.74940002  0.75279635  0.82626776     0.82700
N1080       N  0.76638206  0.73480136  0.84197897    -0.79800
Zn1081     Zn  0.00505825  0.97233462  0.97559722     1.49700
Zn1082     Zn  0.96551331  0.50181635  0.92438828     1.49400
Zn1083     Zn  0.00059253  0.53972942  0.97333294     1.49100
Zn1084     Zn  0.53358915  0.50725328  0.91942793     1.49500
O1085       O  0.00099742  0.50525441  0.94814853    -1.84100
O1086       O  0.97095882  0.94693760  0.97244028    -0.74800
O1087       O  0.94062511  0.53597101  0.93216184    -0.74600
O1088       O  0.00186302  0.53065272  0.01947724    -0.74100
O1089       O  0.94300697  0.96669945  0.93722827    -0.74800
O1090       O  0.00755175  0.98418805  0.02082759    -0.74400
O1091       O  0.96555482  0.56262887  0.96466942    -0.75000
O1092       O  0.55706387  0.54273292  0.92472969    -0.74400
O1093       O  0.97400100  0.50027265  0.87744395    -0.75100
O1094       O  0.53476002  0.56428933  0.96399598    -0.74500
O1095       O  0.52089392  0.50510430  0.87500320    -0.75000
O1096       O  0.55945434  0.97435669  0.92598161    -0.74900
O1097       O  0.53994496  0.94925817  0.96459028    -0.74700
C1098       C  0.94811334  0.94706447  0.95683681     0.77100
C1099       C  0.94365731  0.55849997  0.94808524     0.77600
C1100       C  0.00538606  0.50785109  0.03476062     0.76600
C1101       C  0.55516987  0.56303383  0.94415453     0.76900
C1102       C  0.49712267  0.50210708  0.86162592     0.78100
C1103       C  0.55953296  0.95300472  0.94410669     0.77100
C1104       C  0.74212226  0.72471434  0.02443709     0.80200
N1105       N  0.75541018  0.74650845  0.00929540    -0.78100
C1106       C  0.76843927  0.76715574  0.02620148     0.82600
N1107       N  0.76750765  0.76594991  0.05811028    -0.78000
C1108       C  0.75430372  0.74436340  0.07326899     0.82700
N1109       N  0.74189938  0.72383844  0.05624102    -0.79800
C1110       C  0.52220504  0.97897490  0.37483912     0.80200
N1111       N  0.52451729  0.97872985  0.34303422    -0.78100
C1112       C  0.50779913  0.49537556  0.32527704     0.82600
N1113       N  0.98888142  0.51264686  0.33971687    -0.78000
C1114       C  0.98627961  0.51339998  0.37146799     0.82700
N1115       N  0.50288543  0.49623745  0.38909031    -0.79800
Zn1116     Zn  0.71470258  0.74631408  0.42629817     1.49700
Zn1117     Zn  0.75189428  0.77993825  0.47627190     1.49400
Zn1118     Zn  0.75297414  0.71238075  0.47565478     1.49100
Zn1119     Zn  0.78262346  0.74689142  0.42032511     1.49500
O1120       O  0.75042319  0.74638414  0.44963605    -1.84100
O1121       O  0.69138359  0.78092036  0.43648914    -0.74800
O1122       O  0.75346445  0.76910941  0.52211953    -0.74600
O1123       O  0.71742805  0.68932012  0.47136126    -0.74100
O1124       O  0.71809787  0.80520444  0.46942352    -0.74800
O1125       O  0.69082066  0.71180944  0.43682129    -0.74400
O1126       O  0.75656303  0.72238082  0.52126248    -0.75000
O1127       O  0.80445920  0.71084617  0.42271995    -0.74400
O1128       O  0.78698007  0.80287024  0.46670815    -0.75100
O1129       O  0.78603618  0.68723179  0.46313166    -0.74500
O1130       O  0.80962688  0.77901511  0.42924702    -0.75000
O1131       O  0.76951775  0.74984842  0.37580668    -0.74900
O1132       O  0.72247975  0.74754690  0.37943380    -0.74700
C1133       C  0.69575551  0.80272298  0.45318554     0.77100
C1134       C  0.75593188  0.74556914  0.53629768     0.77600
C1135       C  0.69480333  0.69122491  0.45550878     0.76600
C1136       C  0.80394287  0.68935543  0.44060995     0.76900
C1137       C  0.80813213  0.79977523  0.44812630     0.78100
C1138       C  0.74526108  0.74932110  0.36306389     0.77100
C1139       C  0.97381065  0.98440722  0.52204298     0.80200
N1140       N  0.48945639  0.00493779  0.50754181    -0.78100
C1141       C  0.50398494  0.52409772  0.52491774     0.82600
N1142       N  0.50231863  0.52266280  0.55673388    -0.78000
C1143       C  0.48654487  0.50251149  0.57138674     0.82700
N1144       N  0.97249305  0.98336276  0.55384852    -0.79800
C1145       C  0.67259016  0.66927983  0.45976256    -0.03200
C1146       C  0.67753976  0.64620301  0.47962325    -0.05800
C1147       C  0.65609465  0.62671852  0.48622034    -0.20900
C1148       C  0.62919216  0.62956146  0.47301303     0.24800
C1149       C  0.62433975  0.65205158  0.45220051    -0.18500
C1150       C  0.64590554  0.67172843  0.44561731    -0.08400
C1151       C  0.60649106  0.61002726  0.48400428    -0.18700
C1152       C  0.58210266  0.60481591  0.46897780    -0.23500
C1153       C  0.56045406  0.58550122  0.48286162     0.26900
C1154       C  0.54516983  0.56698521  0.46374160    -0.20300
C1155       C  0.52640941  0.54718250  0.47713981    -0.09900
C1156       C  0.52227202  0.54596616  0.50987729    -0.10500
C1157       C  0.53663148  0.56553233  0.52869933    -0.03400
C1158       C  0.55539456  0.58503917  0.51539077    -0.18500
H1159       H  0.69783998  0.64351134  0.49079463     0.10600
H1160       H  0.66039872  0.60961630  0.50233316     0.10600
H1161       H  0.60371054  0.65518683  0.44199820     0.10300
H1162       H  0.64140785  0.68930062  0.43024020     0.11400
H1163       H  0.61047128  0.59874875  0.50570298     0.11500
H1164       H  0.57856588  0.61349411  0.44580848     0.13400
H1165       H  0.54849211  0.56718634  0.43855995     0.09900
H1166       H  0.51568153  0.53248564  0.46195048     0.12000
H1167       H  0.53375513  0.56559917  0.55393224     0.08600
H1168       H  0.56609585  0.59970255  0.53068426     0.11400
C1169       C  0.95786864  0.96335131  0.50390455    -0.03200
C1170       C  0.94361174  0.97101627  0.47655415    -0.05800
C1171       C  0.92560912  0.95176069  0.46184861    -0.20900
C1172       C  0.92203901  0.92439736  0.47392716     0.24800
C1173       C  0.93718217  0.91645748  0.50067216    -0.18500
C1174       C  0.95477314  0.93580542  0.51558096    -0.08400
C1175       C  0.89985807  0.90573299  0.46094737    -0.18700
C1176       C  0.90154510  0.87742647  0.46192486    -0.23500
C1177       C  0.87703008  0.85890106  0.45522555     0.26900
C1178       C  0.88166125  0.83206789  0.44235077    -0.20300
C1179       C  0.85907157  0.81317163  0.43885063    -0.09900
C1180       C  0.83158699  0.82052449  0.44906693    -0.10500
C1181       C  0.82695304  0.84750092  0.46170175    -0.03400
C1182       C  0.84939062  0.86656835  0.46456181    -0.18500
H1183       H  0.94506463  0.99232325  0.46767848     0.10600
H1184       H  0.91381813  0.95847864  0.44155701     0.10600
H1185       H  0.93431270  0.89581393  0.51112538     0.10300
H1186       H  0.96543167  0.92944447  0.53677502     0.11400
H1187       H  0.88111537  0.91562648  0.45133259     0.11500
H1188       H  0.92126499  0.86743817  0.46865486     0.13400
H1189       H  0.90285519  0.82561056  0.43537592     0.09900
H1190       H  0.86329283  0.79245324  0.42922142     0.12000
H1191       H  0.80601242  0.85373758  0.46980739     0.08600
H1192       H  0.84528111  0.88683488  0.47535129     0.11400
C1193       C  0.54078618  0.96034010  0.39318667    -0.03200
C1194       C  0.53116583  0.94731380  0.42098988    -0.05800
C1195       C  0.54798147  0.92701281  0.43579281    -0.20900
C1196       C  0.57495211  0.92018040  0.42359206     0.24800
C1197       C  0.58488311  0.93410040  0.39646522    -0.18500
C1198       C  0.56792482  0.95379703  0.38137000    -0.08400
C1199       C  0.59148529  0.89674799  0.43739330    -0.18700
C1200       C  0.62004130  0.89690685  0.43738263    -0.23500
C1201       C  0.63748477  0.87201661  0.44548822     0.26900
C1202       C  0.66491492  0.87630838  0.45688202    -0.20300
C1203       C  0.68336722  0.85357985  0.46083603    -0.09900
C1204       C  0.67499042  0.82611958  0.45268199    -0.10500
C1205       C  0.64728101  0.82170456  0.44191949    -0.03400
C1206       C  0.62862471  0.84440217  0.43854015    -0.18500
H1207       H  0.51022363  0.95187983  0.43043980     0.10600
H1208       H  0.53979702  0.91635077  0.45651104     0.10600
H1209       H  0.60525310  0.92885418  0.38600456     0.10300
H1210       H  0.57586132  0.96355711  0.35999099     0.11400
H1211       H  0.57992995  0.87882302  0.44706635     0.11500
H1212       H  0.63128753  0.91601755  0.43048709     0.13400
H1213       H  0.67231411  0.89742325  0.46204728     0.09900
H1214       H  0.70463254  0.85769891  0.46897210     0.12000
H1215       H  0.64024520  0.80078581  0.43540227     0.08600
H1216       H  0.60784677  0.84046013  0.42898299     0.11400
C1217       C  0.82397221  0.66615600  0.43389507    -0.03200
C1218       C  0.83325015  0.66185847  0.40287704    -0.05800
C1219       C  0.85148436  0.63974232  0.39546466    -0.20900
C1220       C  0.86155601  0.62182266  0.41892845     0.24800
C1221       C  0.85258929  0.62607974  0.45017053    -0.18500
C1222       C  0.83358851  0.64795714  0.45754362    -0.08400
C1223       C  0.88073567  0.59870843  0.40911369    -0.18700
C1224       C  0.90267275  0.58925083  0.42604565    -0.23500
C1225       C  0.92436478  0.56992148  0.41224318     0.26900
C1226       C  0.94018407  0.55206691  0.43163584    -0.20300
C1227       C  0.96059086  0.53378412  0.41865453    -0.09900
C1228       C  0.96549787  0.53305583  0.38607112    -0.10500
C1229       C  0.95030845  0.55166308  0.36695190    -0.03400
C1230       C  0.93030192  0.56997902  0.37982107    -0.18500
H1231       H  0.82594624  0.67533127  0.38412696     0.10600
H1232       H  0.85800462  0.63677698  0.37122414     0.10600
H1233       H  0.85970567  0.61224183  0.46865091     0.10300
H1234       H  0.82662375  0.65081175  0.48163590     0.11400
H1235       H  0.87781438  0.59081010  0.38551238     0.11500
H1236       H  0.90540645  0.59651298  0.44994950     0.13400
H1237       H  0.93655826  0.55206742  0.45677218     0.09900
H1238       H  0.97243670  0.52017137  0.43400470     0.12000
H1239       H  0.95393345  0.55231349  0.34183274     0.08600
H1240       H  0.91992350  0.58448306  0.36414144     0.11400
C1241       C  0.74370266  0.75076518  0.32850023    -0.03200
C1242       C  0.71952354  0.76156749  0.31384221    -0.05800
C1243       C  0.71861731  0.76370453  0.28112668    -0.20900
C1244       C  0.74146507  0.75427874  0.26251840     0.24800
C1245       C  0.76553630  0.74322839  0.27716296    -0.18500
C1246       C  0.76672497  0.74170958  0.30983008    -0.08400
C1247       C  0.74035875  0.75709835  0.22795245    -0.18700
C1248       C  0.75109610  0.73729099  0.20865921    -0.23500
C1249       C  0.75085388  0.73992338  0.17407007     0.29500
C1250       C  0.74704803  0.71563721  0.15592435    -0.20300
C1251       C  0.74786733  0.71719542  0.12321886    -0.09900
C1252       C  0.75327964  0.74300804  0.10796488    -0.10500
C1253       C  0.75744190  0.76732127  0.12617618    -0.03400
C1254       C  0.75600458  0.76584522  0.15895489    -0.18500
H1255       H  0.70157017  0.76887925  0.32769529     0.10600
H1256       H  0.69995822  0.77248897  0.27029936     0.10600
H1257       H  0.78370890  0.73634565  0.26339377     0.10300
H1258       H  0.78563070  0.73330269  0.32050161     0.11400
H1259       H  0.72945095  0.77520132  0.21822155     0.11500
H1260       H  0.75926514  0.71783497  0.21851606     0.13400
H1261       H  0.74328796  0.69541715  0.16711478     0.09900
H1262       H  0.74469694  0.69805666  0.10987573     0.12000
H1263       H  0.76162792  0.78750036  0.11509702     0.08600
H1264       H  0.75962196  0.78480579  0.17245213     0.11400
C1265       C  0.78480286  0.79025175  0.01065907    -0.03200
C1266       C  0.79203119  0.78940363  0.97852685    -0.05800
C1267       C  0.81013631  0.80994513  0.96531002    -0.20900
C1268       C  0.82150912  0.83144869  0.98401766     0.24800
C1269       C  0.81295240  0.83313295  0.01563928    -0.18500
C1270       C  0.79492700  0.81282092  0.02876073    -0.08400
C1271       C  0.84254579  0.85179904  0.97063433    -0.18700
C1272       C  0.86422884  0.86149711  0.98789772    -0.23500
C1273       C  0.88599010  0.88215939  0.97693237     0.26900
C1274       C  0.91189923  0.88300123  0.99264734    -0.20300
C1275       C  0.93220973  0.90354180  0.98541390    -0.09900
C1276       C  0.92704302  0.92413378  0.96245127    -0.10500
C1277       C  0.90126966  0.92305922  0.94619766    -0.03400
C1278       C  0.88092148  0.90223269  0.95332484    -0.18500
H1279       H  0.78445306  0.77244241  0.96384669     0.10600
H1280       H  0.81608017  0.80845625  0.94074364     0.10600
H1281       H  0.82038572  0.85007463  0.03042455     0.10300
H1282       H  0.78937745  0.81458813  0.05340484     0.11400
H1283       H  0.84103054  0.85757614  0.94608279     0.11500
H1284       H  0.86682961  0.85312103  0.01141188     0.13400
H1285       H  0.91631922  0.86788475  0.01100720     0.09900
H1286       H  0.95176801  0.90361646  0.99842021     0.12000
H1287       H  0.89657406  0.93864571  0.92844647     0.08600
H1288       H  0.86094331  0.90255766  0.94116395     0.11400
C1289       C  0.57761590  0.58502758  0.94461743    -0.03200
C1290       C  0.59713815  0.58811941  0.91954153    -0.05800
C1291       C  0.61956021  0.60753005  0.92139476    -0.20900
C1292       C  0.62325498  0.62362538  0.94861356     0.24800
C1293       C  0.60318970  0.62122485  0.97319068    -0.18500
C1294       C  0.58058200  0.60226632  0.97114659    -0.08400
C1295       C  0.64831407  0.64246685  0.95158227    -0.18700
C1296       C  0.66237220  0.64397146  0.97875817    -0.23500
C1297       C  0.68665977  0.66303678  0.98513366     0.26900
C1298       C  0.70370006  0.65649629  0.01076789    -0.20300
C1299       C  0.72341064  0.67586843  0.02177495    -0.09900
C1300       C  0.72650237  0.70244625  0.00755185    -0.10500
C1301       C  0.71110397  0.70834964  0.98034955    -0.03400
C1302       C  0.69119907  0.68877516  0.96920828    -0.18500
H1303       H  0.59528020  0.57529870  0.89867666     0.10600
H1304       H  0.63459515  0.60926127  0.90203919     0.10600
H1305       H  0.60508717  0.63391526  0.99415165     0.10300
H1306       H  0.56588646  0.60052916  0.99081246     0.11400
H1307       H  0.65592114  0.65393950  0.93107836     0.11500
H1308       H  0.65572241  0.63007811  0.99781322     0.13400
H1309       H  0.70080884  0.63679075  0.02332684     0.09900
H1310       H  0.73522132  0.67059339  0.04257507     0.12000
H1311       H  0.71298361  0.72875220  0.96905969     0.08600
H1312       H  0.67822881  0.69462251  0.94952991     0.11400
C1313       C  0.48452780  0.50156805  0.60609245    -0.03200
C1314       C  0.96466179  0.48386629  0.62127676    -0.05800
C1315       C  0.96256212  0.48322115  0.65399912    -0.20900
C1316       C  0.98053609  0.49987252  0.67226329     0.24800
C1317       C  0.50023054  0.01781857  0.65712702    -0.18500
C1318       C  0.50219022  0.01863830  0.62441271    -0.08400
C1319       C  0.97776834  0.49854546  0.70695418    -0.18700
C1320       C  0.49974382  0.00339188  0.72600109    -0.23500
C1321       C  0.49773178  0.00167455  0.76070664     0.26900
C1322       C  0.52255629  0.99637584  0.77738419    -0.20300
C1323       C  0.52211088  0.99595412  0.81008458    -0.09900
C1324       C  0.49679199  0.50098467  0.82695127    -0.10500
C1325       C  0.97176931  0.50594534  0.81032982    -0.03400
C1326       C  0.97223570  0.50644030  0.77748082    -0.18500
H1327       H  0.95055378  0.47062356  0.60789670     0.10600
H1328       H  0.94703649  0.46944097  0.66510302     0.10600
H1329       H  0.51382781  0.03162259  0.67042384     0.10300
H1330       H  0.51757824  0.03267289  0.61350165     0.11400
H1331       H  0.95753422  0.49176023  0.71686014     0.11500
H1332       H  0.52060248  0.00739660  0.71578227     0.13400
H1333       H  0.54245314  0.99267981  0.76504563     0.09900
H1334       H  0.54172766  0.99188172  0.82218103     0.12000
H1335       H  0.95201899  0.51019045  0.82270462     0.08600
H1336       H  0.95282863  0.51135265  0.76542342     0.11400
C1337       C  0.51001828  0.49473239  0.29055646    -0.03200
C1338       C  0.02942677  0.97676246  0.27524198    -0.05800
C1339       C  0.03128168  0.97615789  0.24249134    -0.20900
C1340       C  0.01399912  0.99362347  0.22432446     0.24800
C1341       C  0.49432919  0.51135708  0.23961933    -0.18500
C1342       C  0.49245100  0.51195359  0.27232109    -0.08400
C1343       C  0.01609961  0.99183112  0.18958524    -0.18700
C1344       C  0.50800207  0.51282035  0.17037688    -0.23500
C1345       C  0.50870031  0.51077702  0.13561127     0.26900
C1346       C  0.50834885  0.53574997  0.11792043    -0.20300
C1347       C  0.50753754  0.53483890  0.08519836    -0.09900
C1348       C  0.00690978  0.50885240  0.06940902    -0.10500
C1349       C  0.00737138  0.98381881  0.08708796    -0.03400
C1350       C  0.00811268  0.98473366  0.11982135    -0.18500
H1351       H  0.04316433  0.96308152  0.28851990     0.10600
H1352       H  0.04635975  0.96205340  0.23129592     0.10600
H1353       H  0.47987667  0.52437579  0.22652099     0.10300
H1354       H  0.47701958  0.52581438  0.28327538     0.11400
H1355       H  0.02549146  0.97288586  0.17973235     0.11500
H1356       H  0.50122003  0.53277795  0.18036264     0.13400
H1357       H  0.50858132  0.55607950  0.12948052     0.09900
H1358       H  0.50726082  0.55451980  0.07229258     0.12000
H1359       H  0.00666742  0.96345251  0.07565959     0.08600
H1360       H  0.00743576  0.96499726  0.13253811     0.11400
C1361       C  0.75824024  0.74506968  0.57091971    -0.03200
C1362       C  0.75991378  0.71928265  0.58710687    -0.05800
C1363       C  0.76216109  0.71876309  0.61973085    -0.20900
C1364       C  0.76256698  0.74392940  0.63696823     0.24800
C1365       C  0.76138002  0.76978335  0.62077242    -0.18500
C1366       C  0.75911728  0.77031300  0.58812496    -0.08400
C1367       C  0.76452304  0.74228994  0.67166056    -0.18700
C1368       C  0.75505195  0.76277464  0.69095071    -0.23500
C1369       C  0.75484323  0.76025123  0.72565443     0.26900
C1370       C  0.73498922  0.77603976  0.74295139    -0.20300
C1371       C  0.73338193  0.77376431  0.77556138    -0.09900
C1372       C  0.75182527  0.75577426  0.79171818    -0.10500
C1373       C  0.77229179  0.74053749  0.77447230    -0.03400
C1374       C  0.77385546  0.74279192  0.74178212    -0.18500
H1375       H  0.75942918  0.69943632  0.57458976     0.10600
H1376       H  0.76326158  0.69858117  0.63159017     0.10600
H1377       H  0.76259825  0.78966723  0.63307273     0.10300
H1378       H  0.75822461  0.79053695  0.57635522     0.11400
H1379       H  0.77210370  0.72264501  0.68154833     0.11500
H1380       H  0.74495945  0.78126211  0.68111517     0.13400
H1381       H  0.72029242  0.78984495  0.73113143     0.09900
H1382       H  0.71746126  0.78596082  0.78804609     0.12000
H1383       H  0.78707547  0.72677591  0.78619133     0.08600
H1384       H  0.79010567  0.73103282  0.72934979     0.11400
C1385       C  0.78265131  0.71155666  0.88967586    -0.03200
C1386       C  0.77438068  0.69833141  0.91789257    -0.05800
C1387       C  0.79156485  0.67749508  0.93117383    -0.20900
C1388       C  0.81759614  0.67024334  0.91694851     0.24800
C1389       C  0.82604829  0.68393772  0.88912636    -0.18500
C1390       C  0.80873171  0.70423036  0.87560175    -0.08400
C1391       C  0.83509661  0.64721251  0.92997995    -0.18700
C1392       C  0.86360647  0.64853454  0.92932163    -0.23500
C1393       C  0.88217459  0.62465230  0.93784357     0.26900
C1394       C  0.90906089  0.63043708  0.94991713    -0.20300
C1395       C  0.92854189  0.60872479  0.95457816    -0.09900
C1396       C  0.92178590  0.58081693  0.94643140    -0.10500
C1397       C  0.89460844  0.57491122  0.93491745    -0.03400
C1398       C  0.87488925  0.59660527  0.93085586    -0.18500
H1399       H  0.75428244  0.70341989  0.92907900     0.10600
H1400       H  0.78453702  0.66700565  0.95249679     0.10600
H1401       H  0.84566998  0.67831782  0.87721177     0.10300
H1402       H  0.81569430  0.71402373  0.85384975     0.11400
H1403       H  0.82440509  0.62896000  0.94009702     0.11500
H1404       H  0.87393154  0.66803012  0.92199373     0.13400
H1405       H  0.91520939  0.65193053  0.95516513     0.09900
H1406       H  0.94933308  0.61399128  0.96335343     0.12000
H1407       H  0.88880121  0.55361471  0.92842877     0.08600
H1408       H  0.85452279  0.59159702  0.92083738     0.11400
C1409       C  0.70570987  0.78304358  0.89079522    -0.03200
C1410       C  0.70617631  0.78710291  0.92347540    -0.05800
C1411       C  0.68745160  0.80630275  0.93789875    -0.20900
C1412       C  0.66828889  0.82184297  0.91981984     0.24800
C1413       C  0.66683968  0.81647538  0.88751559    -0.18500
C1414       C  0.68533985  0.79748570  0.87322060    -0.08400
C1415       C  0.65000830  0.84388284  0.93435999    -0.18700
C1416       C  0.64417941  0.86776801  0.91854597    -0.23500
C1417       C  0.62406548  0.89014217  0.92871424     0.26900
C1418       C  0.62373359  0.91513550  0.91109300    -0.20300
C1419       C  0.60334880  0.93577188  0.91684431    -0.09900
C1420       C  0.58255198  0.93195809  0.94038375    -0.10500
C1421       C  0.58334319  0.90736805  0.95888241    -0.03400
C1422       C  0.60390355  0.88657965  0.95309744    -0.18500
H1423       H  0.72152683  0.77618025  0.93768517     0.10600
H1424       H  0.68861463  0.80975972  0.96294233     0.10600
H1425       H  0.65148410  0.82716041  0.87309727     0.10300
H1426       H  0.68386874  0.79447041  0.84813163     0.11400
H1427       H  0.64206315  0.84063378  0.95808105     0.11500
H1428       H  0.65477139  0.87115731  0.89603999     0.13400
H1429       H  0.63892723  0.91845112  0.89212853     0.09900
H1430       H  0.60349077  0.95443724  0.90217767     0.12000
H1431       H  0.56761794  0.90382876  0.97723416     0.08600
H1432       H  0.60320285  0.86748410  0.96696660     0.11400
loop_ 
_geom_bond_atom_site_label_1 
_geom_bond_atom_site_label_2 
_geom_bond_distance 
_geom_bond_site_symmetry_2 
_ccdc_geom_bond_type 
C1            N2   1.364       .  A
C1            N6   1.360       .  A
C1          C311   1.479       .  S
N2            C3   1.363       .  A
C3            N4   1.358       .  A
C3          C335   1.483       .  S
N4            C5   1.353       .  A
C5            N6   1.355       .  A
C5          C298   1.483       .  S
Zn7          O12   2.013       .  S
Zn7          O16   2.015   1_556  S
Zn7         O739   2.027       .  S
Zn7         O369   1.961       .  S
Zn8          O13   2.027       .  S
Zn8          O19   2.038       .  S
Zn8         O373   2.042   1_545  S
Zn8          O11   1.975       .  S
Zn9          O14   2.016   1_556  S
Zn9          O17   2.017       .  S
Zn9         O736   2.020       .  S
Zn9          O11   1.957       .  S
Zn10         O18   2.026       .  S
Zn10         O21   1.998       .  S
Zn10        O380   2.004   1_545  S
Zn10        O727   1.953       .  S
O11        Zn365   1.961   1_545  S
O11        Zn726   1.953       .  S
O12          C24   1.274       .  A
O13          C25   1.275       .  A
O14          C26   1.274       .  A
O15        Zn366   2.042       .  S
O15          C24   1.276       .  A
O16         C384   1.274       .  A
O17          C25   1.275       .  A
O18          C27   1.273       .  A
O19         C744   1.276       .  A
O20        Zn725   2.020       .  S
O20          C27   1.274       .  A
O21          C28   1.273   1_455  A
O22        Zn368   2.004       .  S
O22          C29   1.273       .  A
O23        Zn723   2.027       .  S
O23          C29   1.274       .  A
C24         C202   1.488       .  S
C25         C322   1.481       .  S
C26         C274   1.481       .  S
C26         O374   1.274   1_545  A
C27         C215   1.484       .  S
C28         C250   1.480       .  S
C28         O735   1.276       .  A
C29         C346   1.483       .  S
C30          N31   1.364       .  A
C30          N35   1.357       .  A
C30         C226   1.480       .  S
N31          C32   1.367       .  A
C32          N33   1.362       .  A
C32         C191   1.488       .  S
N33          C34   1.355       .  A
C34          N35   1.352       .  A
C34         C178   1.481       .  S
C36          N37   1.359       .  A
C36         N399   1.363       .  A
C36         C119   1.477       .  S
N37         C396   1.355       .  A
C38         N395   1.355       .  A
C38         N755   1.354   1_465  A
C38         C263   1.483       .  S
N39          C40   1.359       .  A
N39         C754   1.354   1_545  A
C40         N757   1.363   1_545  A
C40         C154   1.485       .  S
N41         C394   1.363       .  A
N41         C756   1.363   1_465  A
Zn42         O47   2.021       .  S
Zn42         O51   2.030       .  S
Zn42         O58   2.028       .  S
Zn42         O46   1.969       .  S
Zn43         O48   2.023       .  S
Zn43         O50   2.020       .  S
Zn43         O54   2.014       .  S
Zn43         O46   1.958       .  S
Zn44         O49   2.010       .  S
Zn44         O52   2.012       .  S
Zn44         O55   2.030       .  S
Zn44         O46   1.961       .  S
Zn45         O53   2.000       .  S
Zn45         O56   2.023       .  S
Zn45         O57   2.010       .  S
Zn45         O46   1.953       .  S
O47          C59   1.274       .  A
O48          C60   1.275       .  A
O49          C61   1.274       .  A
O50          C59   1.274       .  A
O51          C61   1.275       .  A
O52          C60   1.274       .  A
O53          C62   1.272       .  A
O54          C63   1.274       .  A
O55          C62   1.273       .  A
O56          C63   1.274       .  A
O57          C64   1.273       .  A
O58          C64   1.275       .  A
C59         C130   1.481       .  S
C60         C287   1.482       .  S
C61          C71   1.484       .  S
C62         C143   1.477       .  S
C63         C106   1.479       .  S
C64         C167   1.479       .  S
C65          N70   1.358       .  A
C65         N782   1.362       .  A
C65          C95   1.475       .  S
N66         C781   1.362       .  A
N66         C425   1.363   1_655  A
C67          N68   1.360       .  A
C67         N424   1.363   1_455  A
C67          C82   1.486       .  S
N68          C69   1.356   1_455  A
C69        N1144   1.355   1_545  A
C69         C239   1.483       .  S
N70        C1143   1.355       .  A
C71          C72   1.405       .  A
C71          C76   1.408       .  A
C72          C73   1.393       .  A
C72          H85   1.083       .  S
C73          C74   1.402       .  A
C73          H86   1.084       .  S
C74          C75   1.408       .  A
C74          C77   1.484       .  S
C75          C76   1.403       .  A
C75          H87   1.082       .  S
C76          H88   1.083       .  S
C77          C78   1.347       .  D
C77          H89   1.087       .  S
C78          C79   1.486       .  S
C78          H90   1.085       .  S
C79          C80   1.404       .  A
C79          C84   1.404       .  A
C80          C81   1.404       .  A
C80          H91   1.083       .  S
C81          C82   1.408       .  A
C81          H92   1.082       .  S
C82          C83   1.407       .  A
C83          C84   1.393       .  A
C83          H93   1.083       .  S
C84          H94   1.083       .  S
C95          C96   1.403       .  A
C95         C100   1.404       .  A
C96          C97   1.400       .  A
C96         H109   1.080       .  S
C97          C98   1.404       .  A
C97         H110   1.083       .  S
C98          C99   1.406       .  A
C98         C101   1.482       .  S
C99         C100   1.395       .  A
C99         H111   1.082       .  S
C100        H112   1.083       .  S
C101        C102   1.345       .  D
C101        H113   1.087       .  S
C102        C103   1.481       .  S
C102        H114   1.086       .  S
C103        C104   1.403       .  A
C103        C108   1.406       .  A
C104        C105   1.400       .  A
C104        H115   1.083       .  S
C105        C106   1.406       .  A
C105        H116   1.083       .  S
C106        C107   1.405       .  A
C107        C108   1.397       .  A
C107        H117   1.083       .  S
C108        H118   1.083       .  S
C119        C120   1.405       .  A
C119        C124   1.404       .  A
C120        C121   1.404       .  A
C120        H133   1.083       .  S
C121        C122   1.406       .  A
C121        H134   1.083       .  S
C122        C123   1.405       .  A
C122        C125   1.485       .  S
C123        C124   1.394       .  A
C123        H135   1.083       .  S
C124        H136   1.083       .  S
C125        C126   1.346       .  D
C125        H137   1.086       .  S
C126        C127   1.483       .  S
C126        H138   1.087       .  S
C127        C128   1.403       .  A
C127        C132   1.407       .  A
C128        C129   1.398       .  A
C128        H139   1.083       .  S
C129        C130   1.405       .  A
C129        H140   1.083       .  S
C130        C131   1.406       .  A
C131        C132   1.400       .  A
C131        H141   1.083       .  S
C132        H142   1.082       .  S
C143        C144   1.403       .  A
C143        C148   1.407       .  A
C144        C145   1.391       .  A
C144        H157   1.083       .  S
C145        C146   1.401       .  A
C145        H158   1.084       .  S
C146        C147   1.407       .  A
C146        C149   1.479       .  S
C147        C148   1.405       .  A
C147        H159   1.082       .  S
C148        H160   1.083       .  S
C149        C150   1.347       .  D
C149        H161   1.085       .  S
C150        C151   1.490       .  S
C150        H162   1.086       .  S
C151        C152   1.406       .  A
C151        C156   1.407       .  A
C152        C153   1.405       .  A
C152        H163   1.083       .  S
C153        C154   1.406       .  A
C153        H164   1.081       .  S
C154        C155   1.405       .  A
C155        C156   1.391       .  A
C155        H165   1.083       .  S
C156        H166   1.081       .  S
C167        C168   1.405       .  A
C167        C172   1.405       .  A
C168        C169   1.400       .  A
C168        H181   1.083       .  S
C169        C170   1.403       .  A
C169        H182   1.083       .  S
C170        C171   1.405       .  A
C170        C173   1.482       .  S
C171        C172   1.397       .  A
C171        H183   1.083       .  S
C172        H184   1.083       .  S
C173        C174   1.344       .  D
C173        H185   1.087       .  S
C174        C175   1.481       .  S
C174        H186   1.087       .  S
C175        C176   1.401       .  A
C175        C180   1.406       .  A
C176        C177   1.397       .  A
C176        H187   1.083       .  S
C177        C178   1.406       .  A
C177        H188   1.083       .  S
C178        C179   1.406       .  A
C179        C180   1.400       .  A
C179        H189   1.083       .  S
C180        H190   1.083       .  S
C191        C192   1.408   1_554  A
C191        C196   1.407       .  A
C192        C193   1.406       .  A
C192        H205   1.083       .  S
C193        C194   1.406       .  A
C193        H206   1.083       .  S
C194        C195   1.405   1_556  A
C194        C197   1.489       .  S
C195        C196   1.394       .  A
C195        H207   1.083       .  S
C196        H208   1.083       .  S
C197        C198   1.349       .  D
C197        H209   1.085       .  S
C198        C199   1.487       .  S
C198        H210   1.087   1_556  S
C199        C200   1.402       .  A
C199        C204   1.408       .  A
C200        C201   1.395       .  A
C200        H211   1.084   1_556  S
C201        C202   1.406       .  A
C201        H212   1.083       .  S
C202        C203   1.408       .  A
C203        C204   1.405       .  A
C203        H213   1.083       .  S
C204        H214   1.082       .  S
C215        C216   1.408       .  A
C215        C220   1.405       .  A
C216        C217   1.403       .  A
C216        H229   1.083       .  S
C217        C218   1.403       .  A
C217        H230   1.083       .  S
C218        C219   1.406       .  A
C218        C221   1.486       .  S
C219        C220   1.396       .  A
C219        H231   1.083       .  S
C220        H232   1.083       .  S
C221        C222   1.345       .  D
C221        H233   1.085       .  S
C222        C223   1.486       .  S
C222        H234   1.088       .  S
C223        C224   1.401   1_556  A
C223        C228   1.410       .  A
C224        C225   1.392       .  A
C224        H235   1.084       .  S
C225        C226   1.404       .  A
C225        H236   1.083       .  S
C226        C227   1.406   1_554  A
C227        C228   1.406       .  A
C227        H237   1.083       .  S
C228        H238   1.082       .  S
C239        C956   1.406   1_545  A
C239        C602   1.406   1_655  A
C240        C241   1.398       .  A
C240        C955   1.406   1_565  A
C240        H253   1.083       .  S
C241        C242   1.402       .  A
C241        H254   1.083       .  S
C242       C1317   1.407   1_565  A
C242        C245   1.485       .  S
C243        C244   1.397       .  A
C243       C1316   1.407   1_455  A
C243        H255   1.082       .  S
C244        C597   1.406   1_455  A
C244        H256   1.083       .  S
C245       C1320   1.345   1_565  D
C245        H257   1.086       .  S
C246        C247   1.484       .  S
C246       C1319   1.345       .  D
C246        H258   1.086   1_655  S
C247        C248   1.401   1_655  A
C247       C1326   1.409       .  A
C248        C249   1.395       .  A
C248        H259   1.084       .  S
C249        C608   1.406   1_455  A
C249        H260   1.083       .  S
C250        C607   1.406   1_645  A
C250        C967   1.405       .  A
C251        C252   1.401       .  A
C251        C966   1.405       .  A
C251        H261   1.083       .  S
C252       C1321   1.409       .  A
C252        H262   1.082       .  S
C263        C268   1.406   1_465  A
C263       C1338   1.406       .  A
C264        C265   1.399       .  A
C264       C1337   1.406       .  A
C264        H277   1.083       .  S
C265        C266   1.403       .  A
C265        H278   1.083       .  S
C266       C1341   1.407       .  A
C266        C269   1.486       .  S
C267        C268   1.397       .  A
C267       C1340   1.407   1_645  A
C267        H279   1.081       .  S
C268        H280   1.083       .  S
C269       C1344   1.347       .  D
C269        H281   1.085       .  S
C270        C271   1.486       .  S
C270       C1343   1.347   1_545  D
C270        H282   1.085       .  S
C271        C272   1.403       .  A
C271       C1350   1.408   1_545  A
C272        C273   1.397       .  A
C272        H283   1.083       .  S
C273        C990   1.405       .  A
C273        H284   1.083       .  S
C274        C989   1.405       .  A
C274        C633   1.406   1_545  A
C275        C276   1.398       .  A
C275        C632   1.406       .  A
C275        H285   1.083       .  S
C276       C1345   1.408       .  A
C276        H286   1.081       .  S
C287        C288   1.406       .  A
C287        C292   1.406       .  A
C288        C289   1.397       .  A
C288        H301   1.083       .  S
C289        C290   1.403       .  A
C289        H302   1.083       .  S
C290        C291   1.408       .  A
C290        C293   1.486       .  S
C291        C292   1.398       .  A
C291        H303   1.081       .  S
C292        H304   1.083       .  S
C293        C294   1.347       .  D
C293        H305   1.085       .  S
C294        C295   1.485       .  S
C294        H306   1.085       .  S
C295        C296   1.402       .  A
C295        C300   1.408       .  A
C296        C297   1.396       .  A
C296        H307   1.083       .  S
C297        C298   1.406       .  A
C297        H308   1.083       .  S
C298        C299   1.406       .  A
C299        C300   1.399       .  A
C299        H309   1.083       .  S
C300        H310   1.082       .  S
C311        C312   1.406       .  A
C311        C316   1.405       .  A
C312        C313   1.403       .  A
C312        H325   1.082       .  S
C313        C314   1.405       .  A
C313        H326   1.083       .  S
C314        C315   1.404       .  A
C314        C317   1.482       .  S
C315        C316   1.393       .  A
C315        H327   1.083       .  S
C316        H328   1.083       .  S
C317        C318   1.345       .  D
C317        H329   1.086       .  S
C318        C319   1.481       .  S
C318        H330   1.087       .  S
C319        C320   1.402       .  A
C319        C324   1.406       .  A
C320        C321   1.397       .  A
C320        H331   1.083       .  S
C321        C322   1.406       .  A
C321        H332   1.083       .  S
C322        C323   1.406       .  A
C323        C324   1.400       .  A
C323        H333   1.083       .  S
C324        H334   1.083       .  S
C335        C336   1.408       .  A
C335        C340   1.405       .  A
C336        C337   1.406       .  A
C336        H349   1.083       .  S
C337        C338   1.405       .  A
C337        H350   1.083       .  S
C338        C339   1.404       .  A
C338        C341   1.486       .  S
C339        C340   1.390       .  A
C339        H351   1.083       .  S
C340        H352   1.083       .  S
C341        C342   1.348       .  D
C341        H353   1.084       .  S
C342        C343   1.485       .  S
C342        H354   1.087       .  S
C343        C344   1.403       .  A
C343        C348   1.408       .  A
C344        C345   1.393       .  A
C344        H355   1.084       .  S
C345        C346   1.404       .  A
C345        H356   1.083       .  S
C346        C347   1.408       .  A
C347        C348   1.404       .  A
C347        H357   1.083       .  S
C348        H358   1.081       .  S
C359        N360   1.364       .  A
C359        N364   1.360       .  A
C359        C669   1.479       .  S
N360        C361   1.363       .  A
C361        N362   1.358       .  A
C361        C693   1.483       .  S
N362        C363   1.353       .  A
C363        N364   1.355       .  A
C363        C656   1.483       .  S
Zn365       O370   2.013       .  S
Zn365       O374   2.015   1_556  S
Zn365      O1097   2.027       .  S
Zn366       O371   2.027       .  S
Zn366       O377   2.038       .  S
Zn366       O369   1.975       .  S
Zn367       O372   2.016   1_556  S
Zn367       O375   2.017       .  S
Zn367      O1094   2.020       .  S
Zn367       O369   1.957       .  S
Zn368       O376   2.026       .  S
Zn368       O379   1.998       .  S
Zn368      O1085   1.953       .  S
O369      Zn1084   1.953       .  S
O370        C382   1.274       .  A
O371        C383   1.275       .  A
O372        C384   1.274       .  A
O373        C382   1.276       .  A
O375        C383   1.275       .  A
O376        C385   1.273       .  A
O377       C1102   1.276       .  A
O378      Zn1083   2.020       .  S
O378        C385   1.274       .  A
O379        C386   1.273   1_455  A
O380        C387   1.273       .  A
O381      Zn1081   2.027       .  S
O381        C387   1.274       .  A
C382        C560   1.488       .  S
C383        C680   1.481       .  S
C384        C632   1.481       .  S
C385        C573   1.484       .  S
C386        C608   1.480       .  S
C386       O1093   1.276       .  A
C387        C704   1.483       .  S
C388        N389   1.364       .  A
C388        N393   1.357       .  A
C388        C584   1.480       .  S
N389        C390   1.367       .  A
C390        N391   1.362       .  A
C390        C549   1.488       .  S
N391        C392   1.355       .  A
C392        N393   1.352       .  A
C392        C536   1.481       .  S
C394        N395   1.359       .  A
C394        C477   1.477       .  S
C396       N1113   1.354   1_455  A
C396        C621   1.483       .  S
N397       C1112   1.354       .  A
N397        C398   1.359       .  A
C398       N1115   1.363       .  A
C398        C512   1.485       .  S
N399       C1114   1.363   1_455  A
Zn400       O405   2.021       .  S
Zn400       O409   2.030       .  S
Zn400       O416   2.028       .  S
Zn400       O404   1.969       .  S
Zn401       O406   2.023       .  S
Zn401       O408   2.020       .  S
Zn401       O412   2.014       .  S
Zn401       O404   1.958       .  S
Zn402       O407   2.010       .  S
Zn402       O410   2.012       .  S
Zn402       O413   2.030       .  S
Zn402       O404   1.961       .  S
Zn403       O411   2.000       .  S
Zn403       O414   2.023       .  S
Zn403       O415   2.010       .  S
Zn403       O404   1.953       .  S
O405        C417   1.274       .  A
O406        C418   1.275       .  A
O407        C419   1.274       .  A
O408        C417   1.274       .  A
O409        C419   1.275       .  A
O410        C418   1.274       .  A
O411        C420   1.272       .  A
O412        C421   1.274       .  A
O413        C420   1.273       .  A
O414        C421   1.274       .  A
O415        C422   1.273       .  A
O416        C422   1.275       .  A
C417        C488   1.481       .  S
C418        C645   1.482       .  S
C419        C429   1.484       .  S
C420        C501   1.477       .  S
C421        C464   1.479       .  S
C422        C525   1.479       .  S
C423       N1140   1.362   1_565  A
C423        N428   1.358       .  A
C423        C453   1.475       .  S
N424       C1139   1.362   1_545  A
C425        N426   1.360       .  A
C425        C440   1.486       .  S
N426        C427   1.356   1_455  A
C427        N786   1.355       .  A
C427        C597   1.483       .  S
N428        C785   1.355   1_565  A
C429        C430   1.405       .  A
C429        C434   1.408       .  A
C430        C431   1.393       .  A
C430        H443   1.083       .  S
C431        C432   1.402       .  A
C431        H444   1.084       .  S
C432        C433   1.408       .  A
C432        C435   1.484       .  S
C433        C434   1.403       .  A
C433        H445   1.082       .  S
C434        H446   1.083       .  S
C435        C436   1.347       .  D
C435        H447   1.087       .  S
C436        C437   1.486       .  S
C436        H448   1.085       .  S
C437        C438   1.404       .  A
C437        C442   1.404       .  A
C438        C439   1.404       .  A
C438        H449   1.083       .  S
C439        C440   1.408       .  A
C439        H450   1.082       .  S
C440        C441   1.407       .  A
C441        C442   1.393       .  A
C441        H451   1.083       .  S
C442        H452   1.083       .  S
C453        C454   1.403       .  A
C453        C458   1.404       .  A
C454        C455   1.400       .  A
C454        H467   1.080       .  S
C455        C456   1.404       .  A
C455        H468   1.083       .  S
C456        C457   1.406       .  A
C456        C459   1.482       .  S
C457        C458   1.395       .  A
C457        H469   1.082       .  S
C458        H470   1.083       .  S
C459        C460   1.345       .  D
C459        H471   1.087       .  S
C460        C461   1.481       .  S
C460        H472   1.086       .  S
C461        C462   1.403       .  A
C461        C466   1.406       .  A
C462        C463   1.400       .  A
C462        H473   1.083       .  S
C463        C464   1.406       .  A
C463        H474   1.083       .  S
C464        C465   1.405       .  A
C465        C466   1.397       .  A
C465        H475   1.083       .  S
C466        H476   1.083       .  S
C477        C478   1.405       .  A
C477        C482   1.404       .  A
C478        C479   1.404       .  A
C478        H491   1.083       .  S
C479        C480   1.406       .  A
C479        H492   1.083       .  S
C480        C481   1.405       .  A
C480        C483   1.485       .  S
C481        C482   1.394       .  A
C481        H493   1.083       .  S
C482        H494   1.083       .  S
C483        C484   1.346       .  D
C483        H495   1.086       .  S
C484        C485   1.483       .  S
C484        H496   1.087       .  S
C485        C486   1.403       .  A
C485        C490   1.407       .  A
C486        C487   1.398       .  A
C486        H497   1.083       .  S
C487        C488   1.405       .  A
C487        H498   1.083       .  S
C488        C489   1.406       .  A
C489        C490   1.400       .  A
C489        H499   1.083       .  S
C490        H500   1.082       .  S
C501        C502   1.403       .  A
C501        C506   1.407       .  A
C502        C503   1.391       .  A
C502        H515   1.083       .  S
C503        C504   1.401       .  A
C503        H516   1.084       .  S
C504        C505   1.407       .  A
C504        C507   1.479       .  S
C505        C506   1.405       .  A
C505        H517   1.082       .  S
C506        H518   1.083       .  S
C507        C508   1.347       .  D
C507        H519   1.085       .  S
C508        C509   1.490       .  S
C508        H520   1.086       .  S
C509        C510   1.406       .  A
C509        C514   1.407       .  A
C510        C511   1.405       .  A
C510        H521   1.083       .  S
C511        C512   1.406       .  A
C511        H522   1.081       .  S
C512        C513   1.405       .  A
C513        C514   1.391       .  A
C513        H523   1.083       .  S
C514        H524   1.081       .  S
C525        C526   1.405       .  A
C525        C530   1.405       .  A
C526        C527   1.400       .  A
C526        H539   1.083       .  S
C527        C528   1.403       .  A
C527        H540   1.083       .  S
C528        C529   1.405       .  A
C528        C531   1.482       .  S
C529        C530   1.397       .  A
C529        H541   1.083       .  S
C530        H542   1.083       .  S
C531        C532   1.344       .  D
C531        H543   1.087       .  S
C532        C533   1.481       .  S
C532        H544   1.087       .  S
C533        C534   1.401       .  A
C533        C538   1.406       .  A
C534        C535   1.397       .  A
C534        H545   1.083       .  S
C535        C536   1.406       .  A
C535        H546   1.083       .  S
C536        C537   1.406       .  A
C537        C538   1.400       .  A
C537        H547   1.083       .  S
C538        H548   1.083       .  S
C549        C550   1.408   1_554  A
C549        C554   1.407       .  A
C550        C551   1.406       .  A
C550        H563   1.083       .  S
C551        C552   1.406       .  A
C551        H564   1.083       .  S
C552        C553   1.405   1_556  A
C552        C555   1.489       .  S
C553        C554   1.394       .  A
C553        H565   1.083       .  S
C554        H566   1.083       .  S
C555        C556   1.349       .  D
C555        H567   1.085       .  S
C556        C557   1.487       .  S
C556        H568   1.087   1_556  S
C557        C558   1.402       .  A
C557        C562   1.408       .  A
C558        C559   1.395       .  A
C558        H569   1.084   1_556  S
C559        C560   1.406       .  A
C559        H570   1.083       .  S
C560        C561   1.408       .  A
C561        C562   1.405       .  A
C561        H571   1.083       .  S
C562        H572   1.082       .  S
C573        C574   1.408       .  A
C573        C578   1.405       .  A
C574        C575   1.403       .  A
C574        H587   1.083       .  S
C575        C576   1.403       .  A
C575        H588   1.083       .  S
C576        C577   1.406       .  A
C576        C579   1.486       .  S
C577        C578   1.396       .  A
C577        H589   1.083       .  S
C578        H590   1.083       .  S
C579        C580   1.345       .  D
C579        H591   1.085       .  S
C580        C581   1.486       .  S
C580        H592   1.088       .  S
C581        C582   1.401   1_556  A
C581        C586   1.410       .  A
C582        C583   1.392       .  A
C582        H593   1.084       .  S
C583        C584   1.404       .  A
C583        H594   1.083       .  S
C584        C585   1.406   1_554  A
C585        C586   1.406       .  A
C585        H595   1.083       .  S
C586        H596   1.082       .  S
C597       C1314   1.406       .  A
C598       C1313   1.406       .  A
C598        C599   1.398       .  A
C598        H611   1.083       .  S
C599        C600   1.402       .  A
C599        H612   1.083       .  S
C600        C959   1.407       .  A
C600        C603   1.485       .  S
C601        C958   1.407   1_445  A
C601        C602   1.397       .  A
C601        H613   1.082       .  S
C602        H614   1.083       .  S
C603        C962   1.345       .  D
C603        H615   1.086       .  S
C604        C605   1.484       .  S
C604        C961   1.345   1_545  D
C604        H616   1.086   1_655  S
C605        C606   1.401   1_645  A
C605        C968   1.409       .  A
C606        C607   1.395       .  A
C606        H617   1.084       .  S
C607        H618   1.083       .  S
C608       C1325   1.405       .  A
C609       C1324   1.405       .  A
C609        C610   1.401       .  A
C609        H619   1.083       .  S
C610        C963   1.409       .  A
C610        H620   1.082       .  S
C621        C980   1.406       .  A
C621        C626   1.406   1_455  A
C622        C979   1.406       .  A
C622        C623   1.399       .  A
C622        H635   1.083       .  S
C623        C624   1.403       .  A
C623        H636   1.083       .  S
C624        C983   1.407   1_565  A
C624        C627   1.486       .  S
C625        C982   1.407   1_655  A
C625        C626   1.397       .  A
C625        H637   1.081       .  S
C626        H638   1.083       .  S
C627        C986   1.347   1_565  D
C627        H639   1.085       .  S
C628        C629   1.486       .  S
C628        C985   1.347       .  D
C628        H640   1.085       .  S
C629        C630   1.403       .  A
C629        C992   1.408       .  A
C630        C631   1.397       .  A
C630        H641   1.083       .  S
C631       C1348   1.405       .  A
C631        H642   1.083       .  S
C632       C1347   1.405       .  A
C633        C634   1.398       .  A
C633        H643   1.083       .  S
C634        C987   1.408   1_565  A
C634        H644   1.081       .  S
C645        C646   1.406       .  A
C645        C650   1.406       .  A
C646        C647   1.397       .  A
C646        H659   1.083       .  S
C647        C648   1.403       .  A
C647        H660   1.083       .  S
C648        C649   1.408       .  A
C648        C651   1.486       .  S
C649        C650   1.398       .  A
C649        H661   1.081       .  S
C650        H662   1.083       .  S
C651        C652   1.347       .  D
C651        H663   1.085       .  S
C652        C653   1.485       .  S
C652        H664   1.085       .  S
C653        C654   1.402       .  A
C653        C658   1.408       .  A
C654        C655   1.396       .  A
C654        H665   1.083       .  S
C655        C656   1.406       .  A
C655        H666   1.083       .  S
C656        C657   1.406       .  A
C657        C658   1.399       .  A
C657        H667   1.083       .  S
C658        H668   1.082       .  S
C669        C670   1.406       .  A
C669        C674   1.405       .  A
C670        C671   1.403       .  A
C670        H683   1.082       .  S
C671        C672   1.405       .  A
C671        H684   1.083       .  S
C672        C673   1.404       .  A
C672        C675   1.482       .  S
C673        C674   1.393       .  A
C673        H685   1.083       .  S
C674        H686   1.083       .  S
C675        C676   1.345       .  D
C675        H687   1.086       .  S
C676        C677   1.481       .  S
C676        H688   1.087       .  S
C677        C678   1.402       .  A
C677        C682   1.406       .  A
C678        C679   1.397       .  A
C678        H689   1.083       .  S
C679        C680   1.406       .  A
C679        H690   1.083       .  S
C680        C681   1.406       .  A
C681        C682   1.400       .  A
C681        H691   1.083       .  S
C682        H692   1.083       .  S
C693        C694   1.408       .  A
C693        C698   1.405       .  A
C694        C695   1.406       .  A
C694        H707   1.083       .  S
C695        C696   1.405       .  A
C695        H708   1.083       .  S
C696        C697   1.404       .  A
C696        C699   1.486       .  S
C697        C698   1.390       .  A
C697        H709   1.083       .  S
C698        H710   1.083       .  S
C699        C700   1.348       .  D
C699        H711   1.084       .  S
C700        C701   1.485       .  S
C700        H712   1.087       .  S
C701        C702   1.403       .  A
C701        C706   1.408       .  A
C702        C703   1.393       .  A
C702        H713   1.084       .  S
C703        C704   1.404       .  A
C703        H714   1.083       .  S
C704        C705   1.408       .  A
C705        C706   1.404       .  A
C705        H715   1.083       .  S
C706        H716   1.081       .  S
C717        N718   1.364       .  A
C717        N722   1.360       .  A
C717       C1027   1.479       .  S
N718        C719   1.363       .  A
C719        N720   1.358       .  A
C719       C1051   1.483       .  S
N720        C721   1.353       .  A
C721        N722   1.355       .  A
C721       C1014   1.483       .  S
Zn723       O728   2.013   1_455  S
Zn723       O732   2.015   1_556  S
Zn723      O1085   1.961       .  S
Zn724       O729   2.027       .  S
Zn724      O1089   2.042   1_545  S
Zn724       O735   2.038       .  S
Zn724       O727   1.975   1_655  S
Zn725       O730   2.016   1_556  S
Zn725       O733   2.017   1_455  S
Zn725       O727   1.957       .  S
Zn726       O734   2.026       .  S
Zn726       O737   1.998       .  S
Zn726      O1096   2.004   1_545  S
O727      Zn1081   1.961   1_545  S
O728        C740   1.274       .  A
O729        C741   1.275       .  A
O730        C742   1.274       .  A
O731      Zn1082   2.042       .  S
O731        C740   1.276       .  A
O732       C1100   1.274       .  A
O733        C741   1.275       .  A
O734        C743   1.273       .  A
O736        C743   1.274       .  A
O737        C744   1.273       .  A
O738      Zn1084   2.004       .  S
O738        C745   1.273       .  A
O739        C745   1.274       .  A
C740        C918   1.488       .  S
C741       C1038   1.481       .  S
C742        C990   1.481       .  S
C742       O1090   1.274   1_545  A
C743        C931   1.484       .  S
C744        C966   1.480       .  S
C745       C1062   1.483       .  S
C746        N747   1.364       .  A
C746        N751   1.357       .  A
C746        C942   1.480       .  S
N747        C748   1.367       .  A
C748        N749   1.362       .  A
C748        C907   1.488       .  S
N749        C750   1.355       .  A
C750        N751   1.352       .  A
C750        C894   1.481       .  S
C752        N753   1.359       .  A
C752       N1115   1.363       .  A
C752        C835   1.477       .  S
N753       C1112   1.355       .  A
C754       N1111   1.355       .  A
C754        C979   1.483       .  S
N755        C756   1.359       .  A
C756        C870   1.485       .  S
N757       C1110   1.363       .  A
Zn758       O763   2.021       .  S
Zn758       O767   2.030       .  S
Zn758       O774   2.028       .  S
Zn758       O762   1.969       .  S
Zn759       O764   2.023       .  S
Zn759       O766   2.020       .  S
Zn759       O770   2.014       .  S
Zn759       O762   1.958       .  S
Zn760       O765   2.010       .  S
Zn760       O768   2.012       .  S
Zn760       O771   2.030       .  S
Zn760       O762   1.961       .  S
Zn761       O769   2.000       .  S
Zn761       O772   2.023       .  S
Zn761       O773   2.010       .  S
Zn761       O762   1.953       .  S
O763        C775   1.274       .  A
O764        C776   1.275       .  A
O765        C777   1.274       .  A
O766        C775   1.274       .  A
O767        C777   1.275       .  A
O768        C776   1.274       .  A
O769        C778   1.272       .  A
O770        C779   1.274       .  A
O771        C778   1.273       .  A
O772        C779   1.274       .  A
O773        C780   1.273       .  A
O774        C780   1.275       .  A
C775        C846   1.481       .  S
C776       C1003   1.482       .  S
C777        C787   1.484       .  S
C778        C859   1.477       .  S
C779        C822   1.479       .  S
C780        C883   1.479       .  S
C781        N786   1.358       .  A
C781        C811   1.475       .  S
N782       C1141   1.363       .  A
C783       N1140   1.363       .  A
C783        N784   1.360       .  A
C783        C798   1.486       .  S
N784        C785   1.356       .  A
C785        C955   1.483       .  S
C787        C788   1.405       .  A
C787        C792   1.408       .  A
C788        C789   1.393       .  A
C788        H801   1.083       .  S
C789        C790   1.402       .  A
C789        H802   1.084       .  S
C790        C791   1.408       .  A
C790        C793   1.484       .  S
C791        C792   1.403       .  A
C791        H803   1.082       .  S
C792        H804   1.083       .  S
C793        C794   1.347       .  D
C793        H805   1.087       .  S
C794        C795   1.486       .  S
C794        H806   1.085       .  S
C795        C796   1.404       .  A
C795        C800   1.404       .  A
C796        C797   1.404       .  A
C796        H807   1.083       .  S
C797        C798   1.408       .  A
C797        H808   1.082       .  S
C798        C799   1.407       .  A
C799        C800   1.393       .  A
C799        H809   1.083       .  S
C800        H810   1.083       .  S
C811        C812   1.403       .  A
C811        C816   1.404       .  A
C812        C813   1.400       .  A
C812        H825   1.080       .  S
C813        C814   1.404       .  A
C813        H826   1.083       .  S
C814        C815   1.406       .  A
C814        C817   1.482       .  S
C815        C816   1.395       .  A
C815        H827   1.082       .  S
C816        H828   1.083       .  S
C817        C818   1.345       .  D
C817        H829   1.087       .  S
C818        C819   1.481       .  S
C818        H830   1.086       .  S
C819        C820   1.403       .  A
C819        C824   1.406       .  A
C820        C821   1.400       .  A
C820        H831   1.083       .  S
C821        C822   1.406       .  A
C821        H832   1.083       .  S
C822        C823   1.405       .  A
C823        C824   1.397       .  A
C823        H833   1.083       .  S
C824        H834   1.083       .  S
C835        C836   1.405       .  A
C835        C840   1.404       .  A
C836        C837   1.404       .  A
C836        H849   1.083       .  S
C837        C838   1.406       .  A
C837        H850   1.083       .  S
C838        C839   1.405       .  A
C838        C841   1.485       .  S
C839        C840   1.394       .  A
C839        H851   1.083       .  S
C840        H852   1.083       .  S
C841        C842   1.346       .  D
C841        H853   1.086       .  S
C842        C843   1.483       .  S
C842        H854   1.087       .  S
C843        C844   1.403       .  A
C843        C848   1.407       .  A
C844        C845   1.398       .  A
C844        H855   1.083       .  S
C845        C846   1.405       .  A
C845        H856   1.083       .  S
C846        C847   1.406       .  A
C847        C848   1.400       .  A
C847        H857   1.083       .  S
C848        H858   1.082       .  S
C859        C860   1.403       .  A
C859        C864   1.407       .  A
C860        C861   1.391       .  A
C860        H873   1.083       .  S
C861        C862   1.401       .  A
C861        H874   1.084       .  S
C862        C863   1.407       .  A
C862        C865   1.479       .  S
C863        C864   1.405       .  A
C863        H875   1.082       .  S
C864        H876   1.083       .  S
C865        C866   1.347       .  D
C865        H877   1.085       .  S
C866        C867   1.490       .  S
C866        H878   1.086       .  S
C867        C868   1.406       .  A
C867        C872   1.407       .  A
C868        C869   1.405       .  A
C868        H879   1.083       .  S
C869        C870   1.406       .  A
C869        H880   1.081       .  S
C870        C871   1.405       .  A
C871        C872   1.391       .  A
C871        H881   1.083       .  S
C872        H882   1.081       .  S
C883        C884   1.405       .  A
C883        C888   1.405       .  A
C884        C885   1.400       .  A
C884        H897   1.083       .  S
C885        C886   1.403       .  A
C885        H898   1.083       .  S
C886        C887   1.405       .  A
C886        C889   1.482       .  S
C887        C888   1.397       .  A
C887        H899   1.083       .  S
C888        H900   1.083       .  S
C889        C890   1.344       .  D
C889        H901   1.087       .  S
C890        C891   1.481       .  S
C890        H902   1.087       .  S
C891        C892   1.401       .  A
C891        C896   1.406       .  A
C892        C893   1.397       .  A
C892        H903   1.083       .  S
C893        C894   1.406       .  A
C893        H904   1.083       .  S
C894        C895   1.406       .  A
C895        C896   1.400       .  A
C895        H905   1.083       .  S
C896        H906   1.083       .  S
C907        C908   1.408   1_554  A
C907        C912   1.407       .  A
C908        C909   1.406       .  A
C908        H921   1.083       .  S
C909        C910   1.406       .  A
C909        H922   1.083       .  S
C910        C911   1.405   1_556  A
C910        C913   1.489       .  S
C911        C912   1.394       .  A
C911        H923   1.083       .  S
C912        H924   1.083       .  S
C913        C914   1.349       .  D
C913        H925   1.085       .  S
C914        C915   1.487       .  S
C914        H926   1.087   1_556  S
C915        C916   1.402       .  A
C915        C920   1.408       .  A
C916        C917   1.395       .  A
C916        H927   1.084   1_556  S
C917        C918   1.406       .  A
C917        H928   1.083       .  S
C918        C919   1.408       .  A
C919        C920   1.405       .  A
C919        H929   1.083       .  S
C920        H930   1.082       .  S
C931        C932   1.408       .  A
C931        C936   1.405       .  A
C932        C933   1.403       .  A
C932        H945   1.083       .  S
C933        C934   1.403       .  A
C933        H946   1.083       .  S
C934        C935   1.406       .  A
C934        C937   1.486       .  S
C935        C936   1.396       .  A
C935        H947   1.083       .  S
C936        H948   1.083       .  S
C937        C938   1.345       .  D
C937        H949   1.085       .  S
C938        C939   1.486       .  S
C938        H950   1.088       .  S
C939        C940   1.401   1_556  A
C939        C944   1.410       .  A
C940        C941   1.392       .  A
C940        H951   1.084       .  S
C941        C942   1.404       .  A
C941        H952   1.083       .  S
C942        C943   1.406   1_554  A
C943        C944   1.406       .  A
C943        H953   1.083       .  S
C944        H954   1.082       .  S
C955       C1318   1.406       .  A
C956        C957   1.398       .  A
C956        H969   1.083       .  S
C957        C958   1.402       .  A
C957        H970   1.083       .  S
C958        C961   1.485       .  S
C959        C960   1.397       .  A
C959        H971   1.082       .  S
C960       C1313   1.406       .  A
C960        H972   1.083       .  S
C961        H973   1.086       .  S
C962        C963   1.484       .  S
C962        H974   1.086       .  S
C963        C964   1.401       .  A
C964        C965   1.395       .  A
C964        H975   1.084       .  S
C965       C1324   1.406       .  A
C965        H976   1.083       .  S
C966       C1323   1.406   1_545  A
C967        C968   1.401       .  A
C967        H977   1.083       .  S
C968        H978   1.082       .  S
C979        C984   1.406   1_565  A
C980        C981   1.399       .  A
C980        H993   1.083       .  S
C981        C982   1.403       .  A
C981        H994   1.083       .  S
C982        C985   1.486       .  S
C983        C984   1.397       .  A
C983        H995   1.081       .  S
C984        H996   1.083       .  S
C985        H997   1.085       .  S
C986        C987   1.486       .  S
C986        H998   1.085       .  S
C987        C988   1.403       .  A
C988        C989   1.397       .  A
C988        H999   1.083       .  S
C989       H1000   1.083       .  S
C990       C1349   1.406   1_545  A
C991       C1348   1.406       .  A
C991        C992   1.398       .  A
C991       H1001   1.083       .  S
C992       H1002   1.081       .  S
C1003      C1004   1.406       .  A
C1003      C1008   1.406       .  A
C1004      C1005   1.397       .  A
C1004      H1017   1.083       .  S
C1005      C1006   1.403       .  A
C1005      H1018   1.083       .  S
C1006      C1007   1.408       .  A
C1006      C1009   1.486       .  S
C1007      C1008   1.398       .  A
C1007      H1019   1.081       .  S
C1008      H1020   1.083       .  S
C1009      C1010   1.347       .  D
C1009      H1021   1.085       .  S
C1010      C1011   1.485       .  S
C1010      H1022   1.085       .  S
C1011      C1012   1.402       .  A
C1011      C1016   1.408       .  A
C1012      C1013   1.396       .  A
C1012      H1023   1.083       .  S
C1013      C1014   1.406       .  A
C1013      H1024   1.083       .  S
C1014      C1015   1.406       .  A
C1015      C1016   1.399       .  A
C1015      H1025   1.083       .  S
C1016      H1026   1.082       .  S
C1027      C1028   1.406       .  A
C1027      C1032   1.405       .  A
C1028      C1029   1.403       .  A
C1028      H1041   1.082       .  S
C1029      C1030   1.405       .  A
C1029      H1042   1.083       .  S
C1030      C1031   1.404       .  A
C1030      C1033   1.482       .  S
C1031      C1032   1.393       .  A
C1031      H1043   1.083       .  S
C1032      H1044   1.083       .  S
C1033      C1034   1.345       .  D
C1033      H1045   1.086       .  S
C1034      C1035   1.481       .  S
C1034      H1046   1.087       .  S
C1035      C1036   1.402       .  A
C1035      C1040   1.406       .  A
C1036      C1037   1.397       .  A
C1036      H1047   1.083       .  S
C1037      C1038   1.406       .  A
C1037      H1048   1.083       .  S
C1038      C1039   1.406       .  A
C1039      C1040   1.400       .  A
C1039      H1049   1.083       .  S
C1040      H1050   1.083       .  S
C1051      C1052   1.408       .  A
C1051      C1056   1.405       .  A
C1052      C1053   1.406       .  A
C1052      H1065   1.083       .  S
C1053      C1054   1.405       .  A
C1053      H1066   1.083       .  S
C1054      C1055   1.404       .  A
C1054      C1057   1.486       .  S
C1055      C1056   1.390       .  A
C1055      H1067   1.083       .  S
C1056      H1068   1.083       .  S
C1057      C1058   1.348       .  D
C1057      H1069   1.084       .  S
C1058      C1059   1.485       .  S
C1058      H1070   1.087       .  S
C1059      C1060   1.403       .  A
C1059      C1064   1.408       .  A
C1060      C1061   1.393       .  A
C1060      H1071   1.084       .  S
C1061      C1062   1.404       .  A
C1061      H1072   1.083       .  S
C1062      C1063   1.408       .  A
C1063      C1064   1.404       .  A
C1063      H1073   1.083       .  S
C1064      H1074   1.081       .  S
C1075      N1076   1.364       .  A
C1075      N1080   1.360       .  A
C1075      C1385   1.479       .  S
N1076      C1077   1.363       .  A
C1077      N1078   1.358       .  A
C1077      C1409   1.483       .  S
N1078      C1079   1.353       .  A
C1079      N1080   1.355       .  A
C1079      C1372   1.483       .  S
Zn1081     O1086   2.013   1_455  S
Zn1081     O1090   2.015   1_556  S
Zn1082     O1087   2.027       .  S
Zn1082     O1093   2.038       .  S
Zn1082     O1085   1.975   1_655  S
Zn1083     O1088   2.016   1_556  S
Zn1083     O1091   2.017   1_455  S
Zn1083     O1085   1.957       .  S
Zn1084     O1092   2.026       .  S
Zn1084     O1095   1.998       .  S
O1086      C1098   1.274       .  A
O1087      C1099   1.275       .  A
O1088      C1100   1.274       .  A
O1089      C1098   1.276       .  A
O1091      C1099   1.275       .  A
O1092      C1101   1.273       .  A
O1094      C1101   1.274       .  A
O1095      C1102   1.273       .  A
O1096      C1103   1.273       .  A
O1097      C1103   1.274       .  A
C1098      C1276   1.488       .  S
C1099      C1396   1.481       .  S
C1100      C1348   1.481       .  S
C1101      C1289   1.484       .  S
C1102      C1324   1.480       .  S
C1103      C1420   1.483       .  S
C1104      N1105   1.364       .  A
C1104      N1109   1.357       .  A
C1104      C1300   1.480       .  S
N1105      C1106   1.367       .  A
C1106      N1107   1.362       .  A
C1106      C1265   1.488       .  S
N1107      C1108   1.355       .  A
C1108      N1109   1.352       .  A
C1108      C1252   1.481       .  S
C1110      N1111   1.359       .  A
C1110      C1193   1.477       .  S
C1112      C1337   1.483       .  S
N1113      C1114   1.359       .  A
C1114      C1228   1.485       .  S
Zn1116     O1121   2.021       .  S
Zn1116     O1125   2.030       .  S
Zn1116     O1132   2.028       .  S
Zn1116     O1120   1.969       .  S
Zn1117     O1122   2.023       .  S
Zn1117     O1124   2.020       .  S
Zn1117     O1128   2.014       .  S
Zn1117     O1120   1.958       .  S
Zn1118     O1123   2.010       .  S
Zn1118     O1126   2.012       .  S
Zn1118     O1129   2.030       .  S
Zn1118     O1120   1.961       .  S
Zn1119     O1127   2.000       .  S
Zn1119     O1130   2.023       .  S
Zn1119     O1131   2.010       .  S
Zn1119     O1120   1.953       .  S
O1121      C1133   1.274       .  A
O1122      C1134   1.275       .  A
O1123      C1135   1.274       .  A
O1124      C1133   1.274       .  A
O1125      C1135   1.275       .  A
O1126      C1134   1.274       .  A
O1127      C1136   1.272       .  A
O1128      C1137   1.274       .  A
O1129      C1136   1.273       .  A
O1130      C1137   1.274       .  A
O1131      C1138   1.273       .  A
O1132      C1138   1.275       .  A
C1133      C1204   1.481       .  S
C1134      C1361   1.482       .  S
C1135      C1145   1.484       .  S
C1136      C1217   1.477       .  S
C1137      C1180   1.479       .  S
C1138      C1241   1.479       .  S
C1139      N1144   1.358       .  A
C1139      C1169   1.475       .  S
C1141      N1142   1.360       .  A
C1141      C1156   1.486       .  S
N1142      C1143   1.356       .  A
C1143      C1313   1.483       .  S
C1145      C1146   1.405       .  A
C1145      C1150   1.408       .  A
C1146      C1147   1.393       .  A
C1146      H1159   1.083       .  S
C1147      C1148   1.402       .  A
C1147      H1160   1.084       .  S
C1148      C1149   1.408       .  A
C1148      C1151   1.484       .  S
C1149      C1150   1.403       .  A
C1149      H1161   1.082       .  S
C1150      H1162   1.083       .  S
C1151      C1152   1.347       .  D
C1151      H1163   1.087       .  S
C1152      C1153   1.486       .  S
C1152      H1164   1.085       .  S
C1153      C1154   1.404       .  A
C1153      C1158   1.404       .  A
C1154      C1155   1.404       .  A
C1154      H1165   1.083       .  S
C1155      C1156   1.408       .  A
C1155      H1166   1.082       .  S
C1156      C1157   1.407       .  A
C1157      C1158   1.393       .  A
C1157      H1167   1.083       .  S
C1158      H1168   1.083       .  S
C1169      C1170   1.403       .  A
C1169      C1174   1.404       .  A
C1170      C1171   1.400       .  A
C1170      H1183   1.080       .  S
C1171      C1172   1.404       .  A
C1171      H1184   1.083       .  S
C1172      C1173   1.406       .  A
C1172      C1175   1.482       .  S
C1173      C1174   1.395       .  A
C1173      H1185   1.082       .  S
C1174      H1186   1.083       .  S
C1175      C1176   1.345       .  D
C1175      H1187   1.087       .  S
C1176      C1177   1.481       .  S
C1176      H1188   1.086       .  S
C1177      C1178   1.403       .  A
C1177      C1182   1.406       .  A
C1178      C1179   1.400       .  A
C1178      H1189   1.083       .  S
C1179      C1180   1.406       .  A
C1179      H1190   1.083       .  S
C1180      C1181   1.405       .  A
C1181      C1182   1.397       .  A
C1181      H1191   1.083       .  S
C1182      H1192   1.083       .  S
C1193      C1194   1.405       .  A
C1193      C1198   1.404       .  A
C1194      C1195   1.404       .  A
C1194      H1207   1.083       .  S
C1195      C1196   1.406       .  A
C1195      H1208   1.083       .  S
C1196      C1197   1.405       .  A
C1196      C1199   1.485       .  S
C1197      C1198   1.394       .  A
C1197      H1209   1.083       .  S
C1198      H1210   1.083       .  S
C1199      C1200   1.346       .  D
C1199      H1211   1.086       .  S
C1200      C1201   1.483       .  S
C1200      H1212   1.087       .  S
C1201      C1202   1.403       .  A
C1201      C1206   1.407       .  A
C1202      C1203   1.398       .  A
C1202      H1213   1.083       .  S
C1203      C1204   1.405       .  A
C1203      H1214   1.083       .  S
C1204      C1205   1.406       .  A
C1205      C1206   1.400       .  A
C1205      H1215   1.083       .  S
C1206      H1216   1.082       .  S
C1217      C1218   1.403       .  A
C1217      C1222   1.407       .  A
C1218      C1219   1.391       .  A
C1218      H1231   1.083       .  S
C1219      C1220   1.401       .  A
C1219      H1232   1.084       .  S
C1220      C1221   1.407       .  A
C1220      C1223   1.479       .  S
C1221      C1222   1.405       .  A
C1221      H1233   1.082       .  S
C1222      H1234   1.083       .  S
C1223      C1224   1.347       .  D
C1223      H1235   1.085       .  S
C1224      C1225   1.490       .  S
C1224      H1236   1.086       .  S
C1225      C1226   1.406       .  A
C1225      C1230   1.407       .  A
C1226      C1227   1.405       .  A
C1226      H1237   1.083       .  S
C1227      C1228   1.406       .  A
C1227      H1238   1.081       .  S
C1228      C1229   1.405       .  A
C1229      C1230   1.391       .  A
C1229      H1239   1.083       .  S
C1230      H1240   1.081       .  S
C1241      C1242   1.405       .  A
C1241      C1246   1.405       .  A
C1242      C1243   1.400       .  A
C1242      H1255   1.083       .  S
C1243      C1244   1.403       .  A
C1243      H1256   1.083       .  S
C1244      C1245   1.405       .  A
C1244      C1247   1.482       .  S
C1245      C1246   1.397       .  A
C1245      H1257   1.083       .  S
C1246      H1258   1.083       .  S
C1247      C1248   1.344       .  D
C1247      H1259   1.087       .  S
C1248      C1249   1.481       .  S
C1248      H1260   1.087       .  S
C1249      C1250   1.401       .  A
C1249      C1254   1.406       .  A
C1250      C1251   1.397       .  A
C1250      H1261   1.083       .  S
C1251      C1252   1.406       .  A
C1251      H1262   1.083       .  S
C1252      C1253   1.406       .  A
C1253      C1254   1.400       .  A
C1253      H1263   1.083       .  S
C1254      H1264   1.083       .  S
C1265      C1266   1.408   1_554  A
C1265      C1270   1.407       .  A
C1266      C1267   1.406       .  A
C1266      H1279   1.083       .  S
C1267      C1268   1.406       .  A
C1267      H1280   1.083       .  S
C1268      C1269   1.405   1_556  A
C1268      C1271   1.489       .  S
C1269      C1270   1.394       .  A
C1269      H1281   1.083       .  S
C1270      H1282   1.083       .  S
C1271      C1272   1.349       .  D
C1271      H1283   1.085       .  S
C1272      C1273   1.487       .  S
C1272      H1284   1.087   1_556  S
C1273      C1274   1.402       .  A
C1273      C1278   1.408       .  A
C1274      C1275   1.395       .  A
C1274      H1285   1.084   1_556  S
C1275      C1276   1.406       .  A
C1275      H1286   1.083       .  S
C1276      C1277   1.408       .  A
C1277      C1278   1.405       .  A
C1277      H1287   1.083       .  S
C1278      H1288   1.082       .  S
C1289      C1290   1.408       .  A
C1289      C1294   1.405       .  A
C1290      C1291   1.403       .  A
C1290      H1303   1.083       .  S
C1291      C1292   1.403       .  A
C1291      H1304   1.083       .  S
C1292      C1293   1.406       .  A
C1292      C1295   1.486       .  S
C1293      C1294   1.396       .  A
C1293      H1305   1.083       .  S
C1294      H1306   1.083       .  S
C1295      C1296   1.345       .  D
C1295      H1307   1.085       .  S
C1296      C1297   1.486       .  S
C1296      H1308   1.088       .  S
C1297      C1298   1.401   1_556  A
C1297      C1302   1.410       .  A
C1298      C1299   1.392       .  A
C1298      H1309   1.084       .  S
C1299      C1300   1.404       .  A
C1299      H1310   1.083       .  S
C1300      C1301   1.406   1_554  A
C1301      C1302   1.406       .  A
C1301      H1311   1.083       .  S
C1302      H1312   1.082       .  S
C1314      C1315   1.398       .  A
C1314      H1327   1.083       .  S
C1315      C1316   1.402       .  A
C1315      H1328   1.083       .  S
C1316      C1319   1.485       .  S
C1317      C1318   1.397       .  A
C1317      H1329   1.082       .  S
C1318      H1330   1.083       .  S
C1319      H1331   1.086       .  S
C1320      C1321   1.484       .  S
C1320      H1332   1.086       .  S
C1321      C1322   1.401   1_545  A
C1322      C1323   1.395       .  A
C1322      H1333   1.084       .  S
C1323      H1334   1.083       .  S
C1325      C1326   1.401       .  A
C1325      H1335   1.083       .  S
C1326      H1336   1.082       .  S
C1337      C1342   1.406       .  A
C1338      C1339   1.399       .  A
C1338      H1351   1.083       .  S
C1339      C1340   1.403       .  A
C1339      H1352   1.083       .  S
C1340      C1343   1.486       .  S
C1341      C1342   1.397       .  A
C1341      H1353   1.081       .  S
C1342      H1354   1.083       .  S
C1343      H1355   1.085       .  S
C1344      C1345   1.486       .  S
C1344      H1356   1.085       .  S
C1345      C1346   1.403       .  A
C1346      C1347   1.397       .  A
C1346      H1357   1.083       .  S
C1347      H1358   1.083       .  S
C1349      C1350   1.398       .  A
C1349      H1359   1.083       .  S
C1350      H1360   1.081       .  S
C1361      C1362   1.406       .  A
C1361      C1366   1.406       .  A
C1362      C1363   1.397       .  A
C1362      H1375   1.083       .  S
C1363      C1364   1.403       .  A
C1363      H1376   1.083       .  S
C1364      C1365   1.408       .  A
C1364      C1367   1.486       .  S
C1365      C1366   1.398       .  A
C1365      H1377   1.081       .  S
C1366      H1378   1.083       .  S
C1367      C1368   1.347       .  D
C1367      H1379   1.085       .  S
C1368      C1369   1.485       .  S
C1368      H1380   1.085       .  S
C1369      C1370   1.402       .  A
C1369      C1374   1.408       .  A
C1370      C1371   1.396       .  A
C1370      H1381   1.083       .  S
C1371      C1372   1.406       .  A
C1371      H1382   1.083       .  S
C1372      C1373   1.406       .  A
C1373      C1374   1.399       .  A
C1373      H1383   1.083       .  S
C1374      H1384   1.082       .  S
C1385      C1386   1.406       .  A
C1385      C1390   1.405       .  A
C1386      C1387   1.403       .  A
C1386      H1399   1.082       .  S
C1387      C1388   1.405       .  A
C1387      H1400   1.083       .  S
C1388      C1389   1.404       .  A
C1388      C1391   1.482       .  S
C1389      C1390   1.393       .  A
C1389      H1401   1.083       .  S
C1390      H1402   1.083       .  S
C1391      C1392   1.345       .  D
C1391      H1403   1.086       .  S
C1392      C1393   1.481       .  S
C1392      H1404   1.087       .  S
C1393      C1394   1.402       .  A
C1393      C1398   1.406       .  A
C1394      C1395   1.397       .  A
C1394      H1405   1.083       .  S
C1395      C1396   1.406       .  A
C1395      H1406   1.083       .  S
C1396      C1397   1.406       .  A
C1397      C1398   1.400       .  A
C1397      H1407   1.083       .  S
C1398      H1408   1.083       .  S
C1409      C1410   1.408       .  A
C1409      C1414   1.405       .  A
C1410      C1411   1.406       .  A
C1410      H1423   1.083       .  S
C1411      C1412   1.405       .  A
C1411      H1424   1.083       .  S
C1412      C1413   1.404       .  A
C1412      C1415   1.486       .  S
C1413      C1414   1.390       .  A
C1413      H1425   1.083       .  S
C1414      H1426   1.083       .  S
C1415      C1416   1.348       .  D
C1415      H1427   1.084       .  S
C1416      C1417   1.485       .  S
C1416      H1428   1.087       .  S
C1417      C1418   1.403       .  A
C1417      C1422   1.408       .  A
C1418      C1419   1.393       .  A
C1418      H1429   1.084       .  S
C1419      C1420   1.404       .  A
C1419      H1430   1.083       .  S
C1420      C1421   1.408       .  A
C1421      C1422   1.404       .  A
C1421      H1431   1.083       .  S
C1422      H1432   1.081       .  S
