geometry optimzed in LAMMPS
_audit_creation_date              2020-12-01 
_audit_creation_method            'lammps2cif' 
_symmetry_space_group_name_H-M    'P1' 
_symmetry_Int_Tables_number       1 
_symmetry_cell_setting            triclinic 
loop_ 
_symmetry_equiv_pos_as_xyz 
  x,y,z 
_cell_length_a                    28.63986521 
_cell_length_b                    28.655003314699467 
_cell_length_c                    43.37153505606939 
_cell_angle_alpha                 90.0226522756575 
_cell_angle_beta                  89.95799947536551 
_cell_angle_gamma                 120.05619781082724 
loop_ 
_atom_site_label 
_atom_site_type_symbol 
_atom_site_fract_x 
_atom_site_fract_y 
_atom_site_fract_z 
_atom_site_charge 
C1          C  0.00080564  0.04964701  0.99987489     0.03200
C2          C  0.04968597  0.04921043  0.99996703    -0.12900
C3          C  0.05012265  0.00035467  0.50013735     0.00700
C4          C  0.50078555  0.45150746  0.50020367    -0.11500
C5          C  0.45147976  0.45103398  0.50011081     0.03200
C6          C  0.45193096  0.50031500  0.99995285    -0.10900
H7          H  0.08753714  0.08704431  0.99991417     0.08800
H8          H  0.50075409  0.41368995  0.50031308     0.06300
H9          H  0.41408719  0.50026989  0.99989630     0.06200
C10         C  0.16696666  0.38309091  0.33341561     0.03200
C11         C  0.11809421  0.33374815  0.33326625    -0.12900
C12         C  0.11764174  0.28446043  0.33322453     0.00700
C13         C  0.16694691  0.28494119  0.33334804    -0.11500
C14         C  0.21627299  0.33379673  0.33351388     0.03200
C15         C  0.21584144  0.38265346  0.33353994    -0.10900
H16         H  0.08024804  0.33369778  0.33318974     0.08800
H17         H  0.16693089  0.24713115  0.33332010     0.06300
H18         H  0.25369704  0.42048234  0.33364284     0.06200
C19         C  0.38286496  0.16649907  0.16661428     0.03200
C20         C  0.38243510  0.21535365  0.16667592    -0.12900
C21         C  0.33355633  0.21578159  0.16677913     0.00700
C22         C  0.28467853  0.16644437  0.16682347    -0.11500
C23         C  0.28421830  0.11715634  0.16675101     0.03200
C24         C  0.33353033  0.11764273  0.16664524    -0.10900
H25         H  0.42028648  0.25318750  0.16664641     0.09700
H26         H  0.24683944  0.16640839  0.16690159     0.06300
H27         H  0.33351515  0.07983338  0.16659586     0.06200
C28         C  0.34353690  0.30688096  0.48123898     0.03200
C29         C  0.39264310  0.35612548  0.48160091    -0.12900
C30         C  0.39952514  0.39906241  0.50015863     0.00700
C31         C  0.35660119  0.39218749  0.01874834    -0.11500
C32         C  0.30733406  0.34311236  0.01913312     0.03200
C33         C  0.30076935  0.30035060  0.50019230    -0.10900
H34         H  0.42525638  0.36172339  0.46652724     0.08800
H35         H  0.36220690  0.42480198  0.03380036     0.06300
H36         H  0.26289671  0.26251985  0.50019579     0.06200
C37         C  0.32412911  0.29754227  0.35251864     0.03200
C38         C  0.27503896  0.29770232  0.35214698    -0.12900
C39         C  0.26821492  0.33377264  0.33357122     0.00700
C40         C  0.31116130  0.36977334  0.31497646    -0.11500
C41         C  0.36037709  0.36992969  0.31459043     0.03200
C42         C  0.36689846  0.33375061  0.33354546    -0.10900
H43         H  0.24238988  0.27066762  0.36719943     0.08800
H44         H  0.30559486  0.39674957  0.29989553     0.06300
H45         H  0.40473066  0.33375630  0.33351880     0.06200
C46         C  0.29736195  0.32367610  0.14788059     0.03200
C47         C  0.29748707  0.27459825  0.14825494    -0.12900
C48         C  0.33353398  0.26771949  0.16682351     0.00700
C49         C  0.36956835  0.31064079  0.18542354    -0.11500
C50         C  0.36973725  0.35986037  0.18582145     0.03200
C51         C  0.33356499  0.36639602  0.16685920    -0.10900
H52         H  0.27047121  0.24200995  0.13318170     0.08800
H53         H  0.39658138  0.30507132  0.20047489     0.06300
H54         H  0.33360212  0.40422428  0.16686417     0.06200
C55         C  0.15804642  0.46418168  0.01915894     0.03200
C56         C  0.10896829  0.46436833  0.01881174    -0.12900
C57         C  0.10206881  0.00031679  0.50017264     0.00700
C58         C  0.14495793  0.03619265  0.48150663    -0.11500
C59         C  0.19419591  0.03638674  0.48114452     0.03200
C60         C  0.20078211  0.00030070  0.50014208    -0.10900
H61         H  0.07637744  0.43741905  0.03392284     0.08800
H62         H  0.13936188  0.06309356  0.46637705     0.06300
H63         H  0.23862056  0.00031783  0.50011991     0.06200
C64         C  0.99082957  0.13036659  0.18546312     0.03200
C65         C  0.44172496  0.13047906  0.18511907    -0.12900
C66         C  0.43480433  0.16646557  0.16653452     0.00700
C67         C  0.47768774  0.20243755  0.14788714    -0.11500
C68         C  0.02694898  0.20266510  0.14749631     0.03200
C69         C  0.03355389  0.16655681  0.16646518    -0.10900
H70         H  0.40914812  0.10349572  0.20022786     0.08800
H71         H  0.47207517  0.22939354  0.13281456     0.06300
H72         H  0.07142445  0.16663823  0.16645271     0.06200
C73         C  0.17620484  0.47302971  0.14781774     0.03200
C74         C  0.22530333  0.02228905  0.14816013    -0.12900
C75         C  0.23225373  0.06517616  0.16678384     0.00700
C76         C  0.18937909  0.05823557  0.18543465    -0.11500
C77         C  0.14009165  0.00918230  0.18579123     0.03200
C78         C  0.13346475  0.46644790  0.16680917    -0.10900
H79         H  0.25787105  0.02790968  0.13303996     0.08800
H80         H  0.19501527  0.09079578  0.20054325     0.06300
H81         H  0.09559021  0.42861903  0.16681321     0.06200
Fe82       Fe  0.16711121  0.26509138  0.08328050     1.65800
Fe83       Fe  0.09875851  0.33337396  0.08327467     1.73200
Fe84       Fe  0.23550336  0.40175894  0.08357434     1.54400
O85         O  0.27377538  0.37336270  0.11317665    -0.81600
O86         O  0.12037168  0.38216032  0.04560637    -0.79900
O87         O  0.21562040  0.28617707  0.12107025    -0.84100
O88         O  0.23395260  0.29350114  0.05380512    -0.79000
O89         O  0.21381422  0.42870412  0.12131960    -0.80700
O90         O  0.06040147  0.26678324  0.05362585    -0.83500
C91         C  0.26479851  0.33814766  0.04038161     0.97300
C92         C  0.25987333  0.32869684  0.12659384     1.04700
O93         O  0.16713030  0.33340646  0.08337699    -1.12500
O94         O  0.07126008  0.28457322  0.12092645    -0.74900
O95         O  0.10024420  0.22650511  0.11274402    -0.78400
O96         O  0.26311961  0.38066962  0.04586361    -0.79100
C97         C  0.06949016  0.24029933  0.12627299     0.96200
O98         O  0.11866220  0.23803118  0.04547223    -0.77000
O99         O  0.12682355  0.39997389  0.11291105    -0.82200
C100        C  0.16292246  0.42653598  0.04036463     0.98800
C101        C  0.17129825  0.43054090  0.12657948     1.04700
O102        O  0.20742044  0.44037799  0.05399576    -0.77900
C103        C  0.07435989  0.23619649  0.04006677     1.03000
C104        C  0.46458054  0.15750067  0.48079866     0.03200
C105        C  0.00071976  0.20022830  0.99979125    -0.12900
C106        C  0.03687197  0.19370991  0.01877462     0.00700
C107        C  0.03674277  0.14451963  0.01840040    -0.11500
C108        C  0.00078906  0.10159119  0.99978999     0.03200
C109        C  0.46476726  0.10844286  0.48117507    -0.10900
H110        H  0.00069007  0.23802346  0.99981196     0.08800
H111        H  0.06370457  0.13896495  0.03350457     0.06300
H112        H  0.43776671  0.07583258  0.46610943     0.06200
C113        C  0.13087165  0.49105252  0.31445274     0.03200
C114        C  0.16700414  0.03375186  0.33345907    -0.12900
C115        C  0.20308945  0.02715758  0.35245813     0.00700
C116        C  0.20288303  0.47792058  0.35209069    -0.11500
C117        C  0.16695082  0.43504006  0.33344009     0.03200
C118        C  0.13101339  0.44198038  0.31481136    -0.10900
H119        H  0.16704451  0.07158218  0.33346297     0.08800
H120        H  0.22981712  0.47232620  0.36719649     0.06300
H121        H  0.10405503  0.40943114  0.29969857     0.06200
C122        C  0.00974460  0.14032146  0.31415368     0.03200
C123        C  0.46696445  0.13371417  0.33312214    -0.12900
C124        C  0.47350807  0.17643124  0.35209306     0.00700
C125        C  0.02274906  0.22551353  0.35174002    -0.11500
C126        C  0.06568324  0.23248439  0.33313886     0.03200
C127        C  0.05883121  0.18960829  0.31452633    -0.10900
H128        H  0.42912425  0.09585124  0.33313564     0.08800
H129        H  0.02833825  0.25805505  0.36685051     0.06300
H130        H  0.09147000  0.19525074  0.29946110     0.06200
Fe131      Fe  0.26548135  0.16695727  0.41692659     1.65800
Fe132      Fe  0.33382694  0.09865442  0.41657867     1.73200
Fe133      Fe  0.40220002  0.23533357  0.41662080     1.54400
O134        O  0.37379000  0.27374635  0.38712704    -0.81600
O135        O  0.38262403  0.11988703  0.45423017    -0.79900
O136        O  0.28652933  0.21571535  0.37924104    -0.84100
O137        O  0.29386053  0.23360448  0.44652926    -0.79000
O138        O  0.42925000  0.21392788  0.37879587    -0.80700
O139        O  0.26718983  0.06006214  0.44619021    -0.83500
C140        C  0.33852922  0.26438706  0.45995444     0.97300
C141        C  0.32909752  0.25995677  0.37374784     1.04700
O142        O  0.33384293  0.16699700  0.41670900    -1.12500
O143        O  0.28510123  0.07156094  0.37890101    -0.74900
O144        O  0.22685530  0.10025479  0.38734606    -0.78400
O145        O  0.38106167  0.26271046  0.45442452    -0.79100
C146        C  0.24072643  0.06967915  0.37367800     0.96200
O147        O  0.23856721  0.11832642  0.45465798    -0.77000
O148        O  0.40043440  0.12690219  0.38695343    -0.82200
C149        C  0.42694354  0.16242855  0.45959256     0.98800
C150        C  0.43103719  0.17144939  0.37338483     1.04700
O151        O  0.44074480  0.20702796  0.44610637    -0.77900
C152        C  0.23668235  0.07397450  0.45989265     1.03000
Fe153      Fe  0.00025953  0.43180406  0.25024031     1.65800
Fe154      Fe  0.06867162  0.06850464  0.24991832     1.73200
Fe155      Fe  0.43194052  0.50009772  0.24997212     1.54400
O156        O  0.39350104  0.43324896  0.22048519    -0.81600
O157        O  0.04739338  0.09605196  0.28757843    -0.79900
O158        O  0.45155677  0.40415432  0.21254414    -0.84100
O159        O  0.43357537  0.39349831  0.27982279    -0.79000
O160        O  0.45330787  0.04857184  0.21216151    -0.80700
O161        O  0.10721053  0.04044006  0.27955760    -0.83500
C162        C  0.40286630  0.40740568  0.29328442     0.97300
C163        C  0.40731413  0.40241959  0.20706934     1.04700
O164        O  0.00028302  0.00013571  0.25004360    -1.12500
O165        O  0.09576235  0.04683742  0.21223311    -0.74900
O166        O  0.06698059  0.45987976  0.22068436    -0.78400
O167        O  0.40460113  0.45161659  0.28777424    -0.79100
C168        C  0.09758689  0.00432695  0.20700854     0.96200
O169        O  0.04888671  0.45346459  0.28797040    -0.77000
O170        O  0.04042290  0.10682916  0.22026565    -0.82200
C171        C  0.00483806  0.09777382  0.29294483     0.98800
C172        C  0.99582746  0.09287986  0.20673865     1.04700
O173        O  0.46023901  0.06695248  0.27944731    -0.77900
C174        C  0.09328507  0.49596915  0.29321856     1.03000
C175        C  0.00080572  0.04964706  0.49987495     0.03200
C176        C  0.04968595  0.04921039  0.49996706    -0.12900
C177        C  0.05012256  0.00035461  0.00013729     0.00700
C178        C  0.50078557  0.45150736  0.00020356    -0.11500
C179        C  0.45147979  0.45103390  0.00011080     0.03200
C180        C  0.45193083  0.50031506  0.49995287    -0.10900
H181        H  0.08753740  0.08704457  0.49991421     0.08800
H182        H  0.50075407  0.41368991  0.00031291     0.06300
H183        H  0.41408730  0.50026998  0.49989632     0.06200
C184        C  0.16696662  0.38309087  0.83341575     0.03200
C185        C  0.11809419  0.33374811  0.83326625    -0.12900
C186        C  0.11764173  0.28446040  0.83322450     0.00700
C187        C  0.16694690  0.28494114  0.83334803    -0.11500
C188        C  0.21627295  0.33379667  0.83351388     0.03200
C189        C  0.21584139  0.38265339  0.83354009    -0.10900
H190        H  0.08024801  0.33369770  0.83318967     0.08800
H191        H  0.16693087  0.24713111  0.83332009     0.06300
H192        H  0.25369699  0.42048226  0.83364303     0.06200
C193        C  0.38286494  0.16649911  0.66661424     0.03200
C194        C  0.38243501  0.21535365  0.66667588    -0.12900
C195        C  0.33355624  0.21578156  0.66677910     0.00700
C196        C  0.28467843  0.16644430  0.66682343    -0.11500
C197        C  0.28421827  0.11715629  0.66675098     0.03200
C198        C  0.33353033  0.11764282  0.66664519    -0.10900
H199        H  0.42028646  0.25318759  0.66664637     0.09700
H200        H  0.24683941  0.16640826  0.66690157     0.06300
H201        H  0.33351522  0.07983317  0.66659580     0.06200
C202        C  0.34353688  0.30688088  0.98123895     0.03200
C203        C  0.39264299  0.35612541  0.98160088    -0.12900
C204        C  0.39952515  0.39906233  0.00015863     0.00700
C205        C  0.35660117  0.39218756  0.51874833    -0.11500
C206        C  0.30733413  0.34311234  0.51913323     0.03200
C207        C  0.30076923  0.30035059  0.00019218    -0.10900
H208        H  0.42525646  0.36172337  0.96652710     0.08800
H209        H  0.36220683  0.42480209  0.53380030     0.06300
H210        H  0.26289665  0.26251991  0.00019564     0.06200
C211        C  0.32412913  0.29754229  0.85251858     0.03200
C212        C  0.27503889  0.29770222  0.85214694    -0.12900
C213        C  0.26821487  0.33377258  0.83357118     0.00700
C214        C  0.31116123  0.36977344  0.81497642    -0.11500
C215        C  0.36037707  0.36992980  0.81459042     0.03200
C216        C  0.36689837  0.33375074  0.83354544    -0.10900
H217        H  0.24238999  0.27066761  0.86719934     0.08800
H218        H  0.30559485  0.39674951  0.79989565     0.06300
H219        H  0.40473097  0.33375654  0.83351884     0.06200
C220        C  0.29736175  0.32367600  0.64788064     0.03200
C221        C  0.29748683  0.27459815  0.64825508    -0.12900
C222        C  0.33353385  0.26771943  0.66682353     0.00700
C223        C  0.36956839  0.31064082  0.68542347    -0.11500
C224        C  0.36973718  0.35986032  0.68582142     0.03200
C225        C  0.33356482  0.36639594  0.66685924    -0.10900
H226        H  0.27047076  0.24200962  0.63318181     0.08800
H227        H  0.39658155  0.30507146  0.70047472     0.06300
H228        H  0.33360196  0.40422419  0.66686418     0.06200
C229        C  0.15804648  0.46418181  0.51915896     0.03200
C230        C  0.10896829  0.46436830  0.51881174    -0.12900
C231        C  0.10206869  0.00031666  0.00017254     0.00700
C232        C  0.14495789  0.03619266  0.98150659    -0.11500
C233        C  0.19419586  0.03638665  0.98114449     0.03200
C234        C  0.20078197  0.00030059  0.00014206    -0.10900
H235        H  0.07637738  0.43741886  0.53392283     0.08800
H236        H  0.13936198  0.06309361  0.96637715     0.06300
H237        H  0.23862037  0.00031767  0.00011988     0.06200
C238        C  0.99082960  0.13036658  0.68546311     0.03200
C239        C  0.44172492  0.13047902  0.68511903    -0.12900
C240        C  0.43480433  0.16646563  0.66653451     0.00700
C241        C  0.47768770  0.20243756  0.64788709    -0.11500
C242        C  0.02694893  0.20266516  0.64749632     0.03200
C243        C  0.03355395  0.16655692  0.66646521    -0.10900
H244        H  0.40914811  0.10349568  0.70022775     0.08800
H245        H  0.47207511  0.22939340  0.63281450     0.06300
H246        H  0.07142459  0.16663852  0.66645274     0.06200
C247        C  0.17620485  0.47302972  0.64781777     0.03200
C248        C  0.22530322  0.02228900  0.64816012    -0.12900
C249        C  0.23225371  0.06517608  0.66678388     0.00700
C250        C  0.18937911  0.05823547  0.68543477    -0.11500
C251        C  0.14009156  0.00918226  0.68579121     0.03200
C252        C  0.13346465  0.46644788  0.66680914    -0.10900
H253        H  0.25787090  0.02790969  0.63303983     0.08800
H254        H  0.19501531  0.09079545  0.70054336     0.06300
H255        H  0.09559032  0.42861926  0.66681316     0.06200
Fe256      Fe  0.16711113  0.26509140  0.58328051     1.65800
Fe257      Fe  0.09875856  0.33337409  0.58327466     1.73200
Fe258      Fe  0.23550329  0.40175890  0.58357434     1.54400
O259        O  0.27377537  0.37336269  0.61317664    -0.81600
O260        O  0.12037180  0.38216046  0.54560633    -0.79900
O261        O  0.21562028  0.28617709  0.62107024    -0.84100
O262        O  0.23395261  0.29350103  0.55380522    -0.79000
O263        O  0.21381413  0.42870409  0.62131959    -0.80700
O264        O  0.06040157  0.26678330  0.55362585    -0.83500
C265        C  0.26479855  0.33814757  0.54038173     0.97300
C266        C  0.25987327  0.32869680  0.62659381     1.04700
O267        O  0.16713026  0.33340648  0.58337697    -1.12500
O268        O  0.07125998  0.28457334  0.62092648    -0.74900
O269        O  0.10024413  0.22650524  0.61274408    -0.78400
O270        O  0.26311961  0.38066951  0.54586371    -0.79100
C271        C  0.06949009  0.24029944  0.62627304     0.96200
O272        O  0.11866237  0.23803137  0.54547216    -0.77000
O273        O  0.12682356  0.39997408  0.61291100    -0.82200
C274        C  0.16292259  0.42653611  0.54036459     0.98800
C275        C  0.17129821  0.43054095  0.62657948     1.04700
O276        O  0.20742056  0.44037804  0.55399570    -0.77900
C277        C  0.07436003  0.23619662  0.54006672     1.03000
C278        C  0.46458064  0.15750071  0.98079860     0.03200
C279        C  0.00071990  0.20022830  0.49979123    -0.12900
C280        C  0.03687215  0.19371000  0.51877459     0.00700
C281        C  0.03674294  0.14451973  0.51840038    -0.11500
C282        C  0.00078916  0.10159123  0.49979004     0.03200
C283        C  0.46476734  0.10844290  0.98117501    -0.10900
H284        H  0.00069022  0.23802361  0.49981196     0.08800
H285        H  0.06370488  0.13896506  0.53350458     0.06300
H286        H  0.43776673  0.07583252  0.96610926     0.06200
C287        C  0.13087160  0.49105248  0.81445281     0.03200
C288        C  0.16700413  0.03375182  0.83345905    -0.12900
C289        C  0.20308951  0.02715763  0.85245808     0.00700
C290        C  0.20288318  0.47792063  0.85209071    -0.11500
C291        C  0.16695080  0.43504005  0.83344016     0.03200
C292        C  0.13101329  0.44198026  0.81481142    -0.10900
H293        H  0.16704444  0.07158229  0.83346296     0.08800
H294        H  0.22981709  0.47232633  0.86719641     0.06300
H295        H  0.10405510  0.40943124  0.79969876     0.06200
C296        C  0.00974464  0.14032144  0.81415366     0.03200
C297        C  0.46696445  0.13371436  0.83312206    -0.12900
C298        C  0.47350806  0.17643129  0.85209306     0.00700
C299        C  0.02274903  0.22551354  0.85173995    -0.11500
C300        C  0.06568325  0.23248438  0.83313882     0.03200
C301        C  0.05883132  0.18960826  0.81452632    -0.10900
H302        H  0.42912390  0.09585122  0.83313553     0.08800
H303        H  0.02833818  0.25805504  0.86685041     0.06300
H304        H  0.09146999  0.19525065  0.79946119     0.06200
Fe305      Fe  0.26548138  0.16695722  0.91692661     1.65800
Fe306      Fe  0.33382704  0.09865451  0.91657864     1.73200
Fe307      Fe  0.40220004  0.23533353  0.91662075     1.54400
O308        O  0.37379014  0.27374648  0.88712700    -0.81600
O309        O  0.38262416  0.11988716  0.95423014    -0.79900
O310        O  0.28652947  0.21571541  0.87924104    -0.84100
O311        O  0.29386054  0.23360429  0.94652934    -0.79000
O312        O  0.42924985  0.21392780  0.87879581    -0.80700
O313        O  0.26719000  0.06006228  0.94619022    -0.83500
C314        C  0.33852926  0.26438694  0.95995445     0.97300
C315        C  0.32909763  0.25995684  0.87374781     1.04700
O316        O  0.33384295  0.16699701  0.91670895    -1.12500
O317        O  0.28510127  0.07156088  0.87890099    -0.74900
O318        O  0.22685536  0.10025476  0.88734604    -0.78400
O319        O  0.38106175  0.26271040  0.95442449    -0.79100
C320        C  0.24072651  0.06967914  0.87367796     0.96200
O321        O  0.23856730  0.11832645  0.95465805    -0.77000
O322        O  0.40043436  0.12690216  0.88695337    -0.82200
C323        C  0.42694369  0.16242865  0.95959252     0.98800
C324        C  0.43103714  0.17144937  0.87338479     1.04700
O325        O  0.44074496  0.20702802  0.94610630    -0.77900
C326        C  0.23668245  0.07397454  0.95989268     1.03000
Fe327      Fe  0.00025963  0.43180416  0.75024029     1.65800
Fe328      Fe  0.06867150  0.06850454  0.74991833     1.73200
Fe329      Fe  0.43194038  0.50009773  0.74997209     1.54400
O330        O  0.39350102  0.43324890  0.72048516    -0.81600
O331        O  0.04739332  0.09605190  0.78757840    -0.79900
O332        O  0.45155674  0.40415425  0.71254410    -0.84100
O333        O  0.43357543  0.39349857  0.77982282    -0.79000
O334        O  0.45330781  0.04857169  0.71216146    -0.80700
O335        O  0.10721038  0.04043996  0.77955767    -0.83500
C336        C  0.40286629  0.40740589  0.79328445     0.97300
C337        C  0.40731411  0.40241953  0.70706930     1.04700
O338        O  0.00028286  0.00013565  0.75004357    -1.12500
O339        O  0.09576215  0.04683736  0.71223306    -0.74900
O340        O  0.06698070  0.45987991  0.72068436    -0.78400
O341        O  0.40460099  0.45161669  0.78777423    -0.79100
C342        C  0.09758679  0.00432692  0.70700853     0.96200
O343        O  0.04888679  0.45346456  0.78797036    -0.77000
O344        O  0.04042277  0.10682905  0.72026573    -0.82200
C345        C  0.00483804  0.09777380  0.79294478     0.98800
C346        C  0.99582739  0.09287979  0.70673867     1.04700
O347        O  0.46023889  0.06695244  0.77944728    -0.77900
C348        C  0.09328506  0.49596914  0.79321862     1.03000
C349        C  0.00080570  0.54964704  0.99987490     0.03200
C350        C  0.04968603  0.54921050  0.99996703    -0.12900
C351        C  0.05012265  0.50035473  0.50013736     0.00700
C352        C  0.50078558  0.95150736  0.50020367    -0.11500
C353        C  0.45147980  0.95103394  0.50011082     0.03200
C354        C  0.45193081  0.00031495  0.99995285    -0.10900
H355        H  0.08753712  0.58704435  0.99991418     0.08800
H356        H  0.50075407  0.91368994  0.50031308     0.06300
H357        H  0.41408737  0.00026981  0.99989628     0.06200
C358        C  0.16696658  0.88309083  0.33341561     0.03200
C359        C  0.11809417  0.83374808  0.33326625    -0.12900
C360        C  0.11764177  0.78446041  0.33322454     0.00700
C361        C  0.16694697  0.78494121  0.33334804    -0.11500
C362        C  0.21627301  0.83379674  0.33351387     0.03200
C363        C  0.21584131  0.88265335  0.33353994    -0.10900
H364        H  0.08024794  0.83369767  0.33318975     0.08800
H365        H  0.16693101  0.74713111  0.33332009     0.06300
H366        H  0.25369718  0.92048253  0.33364284     0.06200
C367        C  0.38286488  0.66649905  0.16661428     0.03200
C368        C  0.38243494  0.71535355  0.16667592    -0.12900
C369        C  0.33355628  0.71578160  0.16677913     0.00700
C370        C  0.28467845  0.66644439  0.16682347    -0.11500
C371        C  0.28421823  0.61715636  0.16675099     0.03200
C372        C  0.33353024  0.61764279  0.16664524    -0.10900
H373        H  0.42028666  0.75318770  0.16664641     0.09700
H374        H  0.24683936  0.66640844  0.16690159     0.06300
H375        H  0.33351508  0.57983320  0.16659586     0.06200
C376        C  0.34353690  0.80688097  0.48123895     0.03200
C377        C  0.39264305  0.85612549  0.48160090    -0.12900
C378        C  0.39952515  0.89906241  0.50015862     0.00700
C379        C  0.35660119  0.89218758  0.01874833    -0.11500
C380        C  0.30733412  0.84311235  0.01913317     0.03200
C381        C  0.30076931  0.80035060  0.50019228    -0.10900
H382        H  0.42525652  0.86172344  0.46652719     0.08800
H383        H  0.36220683  0.92480193  0.03380024     0.06300
H384        H  0.26289674  0.76251993  0.50019578     0.06200
C385        C  0.32412915  0.79754233  0.35251864     0.03200
C386        C  0.27503897  0.79770237  0.35214700    -0.12900
C387        C  0.26821497  0.83377271  0.33357123     0.00700
C388        C  0.31116134  0.86977342  0.31497646    -0.11500
C389        C  0.36037714  0.86992977  0.31459045     0.03200
C390        C  0.36689842  0.83375068  0.33354547    -0.10900
H391        H  0.24239003  0.77066778  0.36719938     0.08800
H392        H  0.30559493  0.89674961  0.29989555     0.06300
H393        H  0.40473096  0.83375635  0.33351881     0.06200
C394        C  0.29736186  0.82367601  0.14788062     0.03200
C395        C  0.29748706  0.77459824  0.14825497    -0.12900
C396        C  0.33353397  0.76771948  0.16682350     0.00700
C397        C  0.36956848  0.81064078  0.18542354    -0.11500
C398        C  0.36973725  0.85986032  0.18582146     0.03200
C399        C  0.33356490  0.86639584  0.16685926    -0.10900
H400        H  0.27047103  0.74200978  0.13318165     0.08800
H401        H  0.39658140  0.80507139  0.20047474     0.06300
H402        H  0.33360198  0.90422438  0.16686422     0.06200
C403        C  0.15804637  0.96418168  0.01915897     0.03200
C404        C  0.10896812  0.96436814  0.01881174    -0.12900
C405        C  0.10206877  0.50031677  0.50017260     0.00700
C406        C  0.14495789  0.53619274  0.48150658    -0.11500
C407        C  0.19419591  0.53638681  0.48114453     0.03200
C408        C  0.20078211  0.50030080  0.50014208    -0.10900
H409        H  0.07637747  0.93741898  0.03392274     0.08800
H410        H  0.13936189  0.56309343  0.46637715     0.06300
H411        H  0.23862050  0.50031792  0.50011986     0.06200
C412        C  0.99082959  0.63036652  0.18546312     0.03200
C413        C  0.44172482  0.63047892  0.18511904    -0.12900
C414        C  0.43480425  0.66646555  0.16653453     0.00700
C415        C  0.47768768  0.70243759  0.14788715    -0.11500
C416        C  0.02694893  0.70266511  0.14749631     0.03200
C417        C  0.03355389  0.66655684  0.16646519    -0.10900
H418        H  0.40914796  0.60349549  0.20022773     0.08800
H419        H  0.47207515  0.72939347  0.13281461     0.06300
H420        H  0.07142450  0.66663830  0.16645266     0.06200
C421        C  0.17620481  0.97302974  0.14781772     0.03200
C422        C  0.22530332  0.52228902  0.14816013    -0.12900
C423        C  0.23225371  0.56517617  0.16678383     0.00700
C424        C  0.18937910  0.55823553  0.18543466    -0.11500
C425        C  0.14009164  0.50918228  0.18579124     0.03200
C426        C  0.13346480  0.96644799  0.16680916    -0.10900
H427        H  0.25787105  0.52790965  0.13303993     0.08800
H428        H  0.19501533  0.59079584  0.20054332     0.06300
H429        H  0.09559001  0.92861886  0.16681321     0.06200
Fe430      Fe  0.16711116  0.76509138  0.08328049     1.65800
Fe431      Fe  0.09875864  0.83337402  0.08327467     1.73200
Fe432      Fe  0.23550339  0.90175895  0.08357433     1.54400
O433        O  0.27377537  0.87336261  0.11317663    -0.81600
O434        O  0.12037189  0.88216035  0.04560637    -0.79900
O435        O  0.21562032  0.78617700  0.12107025    -0.84100
O436        O  0.23395254  0.79350098  0.05380511    -0.79000
O437        O  0.21381419  0.92870416  0.12131960    -0.80700
O438        O  0.06040159  0.76678333  0.05362585    -0.83500
C439        C  0.26479852  0.83814757  0.04038165     0.97300
C440        C  0.25987327  0.82869674  0.12659384     1.04700
O441        O  0.16713038  0.83340652  0.08337701    -1.12500
O442        O  0.07126005  0.78457325  0.12092643    -0.74900
O443        O  0.10024412  0.72650512  0.11274401    -0.78400
O444        O  0.26311950  0.88066945  0.04586362    -0.79100
C445        C  0.06949007  0.74029933  0.12627297     0.96200
O446        O  0.11866224  0.73803121  0.04547221    -0.77000
O447        O  0.12682353  0.89997391  0.11291105    -0.82200
C448        C  0.16292257  0.92653606  0.04036464     0.98800
C449        C  0.17129821  0.93054092  0.12657949     1.04700
O450        O  0.20742061  0.94037812  0.05399574    -0.77900
C451        C  0.07435993  0.73619652  0.04006677     1.03000
C452        C  0.46458066  0.65750069  0.48079856     0.03200
C453        C  0.00071985  0.70022824  0.99979120    -0.12900
C454        C  0.03687195  0.69370988  0.01877466     0.00700
C455        C  0.03674278  0.64451961  0.01840045    -0.11500
C456        C  0.00078911  0.60159119  0.99979000     0.03200
C457        C  0.46476738  0.60844289  0.48117500    -0.10900
H458        H  0.00069022  0.73802358  0.99981189     0.08800
H459        H  0.06370456  0.63896494  0.03350461     0.06300
H460        H  0.43776684  0.57583256  0.46610931     0.06200
C461        C  0.13087170  0.99105251  0.31445275     0.03200
C462        C  0.16700408  0.53375197  0.33345907    -0.12900
C463        C  0.20308945  0.52715760  0.35245810     0.00700
C464        C  0.20288296  0.97792047  0.35209073    -0.11500
C465        C  0.16695072  0.93503997  0.33344010     0.03200
C466        C  0.13101325  0.94198023  0.31481137    -0.10900
H467        H  0.16704439  0.57158195  0.33346302     0.08800
H468        H  0.22981697  0.97232605  0.36719652     0.06300
H469        H  0.10405506  0.90943125  0.29969869     0.06200
C470        C  0.00974466  0.64032153  0.31415370     0.03200
C471        C  0.46696438  0.63371419  0.33312212    -0.12900
C472        C  0.47350803  0.67643125  0.35209306     0.00700
C473        C  0.02274912  0.72551360  0.35174002    -0.11500
C474        C  0.06568332  0.73248440  0.33313888     0.03200
C475        C  0.05883125  0.68960834  0.31452633    -0.10900
H476        H  0.42912418  0.59585128  0.33313563     0.08800
H477        H  0.02833830  0.75805514  0.36685045     0.06300
H478        H  0.09147010  0.69525083  0.29946102     0.06200
Fe479      Fe  0.26548144  0.66695720  0.41692660     1.65800
Fe480      Fe  0.33382694  0.59865444  0.41657866     1.73200
Fe481      Fe  0.40220003  0.73533361  0.41662080     1.54400
O482        O  0.37378999  0.77374642  0.38712705    -0.81600
O483        O  0.38262408  0.61988711  0.45423015    -0.79900
O484        O  0.28652934  0.71571534  0.37924104    -0.84100
O485        O  0.29386065  0.73360445  0.44652923    -0.79000
O486        O  0.42925000  0.71392796  0.37879587    -0.80700
O487        O  0.26718984  0.56006212  0.44619021    -0.83500
C488        C  0.33852928  0.76438704  0.45995443     0.97300
C489        C  0.32909753  0.75995680  0.37374784     1.04700
O490        O  0.33384298  0.66699702  0.41670897    -1.12500
O491        O  0.28510117  0.57156076  0.37890102    -0.74900
O492        O  0.22685532  0.60025466  0.38734610    -0.78400
O493        O  0.38106173  0.76271036  0.45442459    -0.79100
C494        C  0.24072642  0.56967908  0.37367799     0.96200
O495        O  0.23856744  0.61832651  0.45465802    -0.77000
O496        O  0.40043439  0.62690225  0.38695344    -0.82200
C497        C  0.42694366  0.66242859  0.45959247     0.98800
C498        C  0.43103719  0.67144944  0.37338484     1.04700
O499        O  0.44074486  0.70702803  0.44610634    -0.77900
C500        C  0.23668244  0.57397453  0.45989267     1.03000
Fe501      Fe  0.00025966  0.93180410  0.25024031     1.65800
Fe502      Fe  0.06867157  0.56850461  0.24991832     1.73200
Fe503      Fe  0.43194052  0.00009774  0.24997211     1.54400
O504        O  0.39350111  0.93324898  0.22048517    -0.81600
O505        O  0.04739337  0.59605203  0.28757841    -0.79900
O506        O  0.45155685  0.90415437  0.21254411    -0.84100
O507        O  0.43357536  0.89349838  0.27982278    -0.79000
O508        O  0.45330782  0.54857160  0.21216144    -0.80700
O509        O  0.10721040  0.54044003  0.27955762    -0.83500
C510        C  0.40286630  0.90740576  0.29328443     0.97300
C511        C  0.40731420  0.90241959  0.20706932     1.04700
O512        O  0.00028294  0.50013573  0.25004361    -1.12500
O513        O  0.09576221  0.54683730  0.21223311    -0.74900
O514        O  0.06698063  0.95987985  0.22068433    -0.78400
O515        O  0.40460110  0.95161663  0.28777423    -0.79100
C516        C  0.09758683  0.50432687  0.20700855     0.96200
O517        O  0.04888690  0.95346460  0.28797036    -0.77000
O518        O  0.04042288  0.60682894  0.22026559    -0.82200
C519        C  0.00483805  0.59777389  0.29294482     0.98800
C520        C  0.99582745  0.59287968  0.20673860     1.04700
O521        O  0.46023897  0.56695254  0.27944730    -0.77900
C522        C  0.09328521  0.99596916  0.29321854     1.03000
C523        C  0.00080571  0.54964708  0.49987493     0.03200
C524        C  0.04968595  0.54921045  0.49996705    -0.12900
C525        C  0.05012263  0.50035469  0.00013729     0.00700
C526        C  0.50078556  0.95150731  0.00020354    -0.11500
C527        C  0.45147979  0.95103388  0.00011080     0.03200
C528        C  0.45193095  0.00031503  0.49995288    -0.10900
H529        H  0.08753738  0.58704462  0.49991420     0.08800
H530        H  0.50075410  0.91369002  0.00031284     0.06300
H531        H  0.41408718  0.00026991  0.49989632     0.06200
C532        C  0.16696658  0.88309085  0.83341575     0.03200
C533        C  0.11809406  0.83374810  0.83326624    -0.12900
C534        C  0.11764170  0.78446040  0.83322450     0.00700
C535        C  0.16694686  0.78494116  0.83334802    -0.11500
C536        C  0.21627296  0.83379669  0.83351387     0.03200
C537        C  0.21584137  0.88265340  0.83354008    -0.10900
H538        H  0.08024824  0.83369772  0.83318967     0.08800
H539        H  0.16693085  0.74713113  0.83332009     0.06300
H540        H  0.25369698  0.92048227  0.83364301     0.06200
C541        C  0.38286497  0.66649911  0.66661424     0.03200
C542        C  0.38243501  0.71535365  0.66667588    -0.12900
C543        C  0.33355627  0.71578159  0.66677911     0.00700
C544        C  0.28467846  0.66644434  0.66682344    -0.11500
C545        C  0.28421829  0.61715634  0.66675099     0.03200
C546        C  0.33353035  0.61764284  0.66664520    -0.10900
H547        H  0.42028656  0.75318771  0.66664636     0.09700
H548        H  0.24683936  0.66640830  0.66690157     0.06300
H549        H  0.33351522  0.57983319  0.66659581     0.06200
C550        C  0.34353690  0.80688096  0.98123893     0.03200
C551        C  0.39264311  0.85612544  0.98160088    -0.12900
C552        C  0.39952516  0.89906235  0.00015862     0.00700
C553        C  0.35660120  0.89218754  0.51874835    -0.11500
C554        C  0.30733413  0.84311236  0.51913324     0.03200
C555        C  0.30076928  0.80035067  0.00019217    -0.10900
H556        H  0.42525636  0.86172332  0.96652724     0.08800
H557        H  0.36220692  0.92480210  0.53380037     0.06300
H558        H  0.26289669  0.76252003  0.00019560     0.06200
C559        C  0.32412911  0.79754221  0.85251860     0.03200
C560        C  0.27503896  0.79770226  0.85214695    -0.12900
C561        C  0.26821490  0.83377258  0.83357119     0.00700
C562        C  0.31116128  0.86977327  0.81497643    -0.11500
C563        C  0.36037708  0.86992966  0.81459044     0.03200
C564        C  0.36689846  0.83375055  0.83354544    -0.10900
H565        H  0.24238989  0.77066757  0.86719940     0.08800
H566        H  0.30559483  0.89674951  0.79989551     0.06300
H567        H  0.40473067  0.83375625  0.83351878     0.06200
C568        C  0.29736183  0.82367608  0.64788063     0.03200
C569        C  0.29748694  0.77459824  0.64825505    -0.12900
C570        C  0.33353388  0.76771946  0.66682355     0.00700
C571        C  0.36956842  0.81064085  0.68542349    -0.11500
C572        C  0.36973729  0.85986039  0.68582139     0.03200
C573        C  0.33356497  0.86639600  0.66685920    -0.10900
H574        H  0.27047091  0.74200974  0.63318172     0.08800
H575        H  0.39658154  0.80507144  0.70047479     0.06300
H576        H  0.33360216  0.90422444  0.66686417     0.06200
C577        C  0.15804643  0.96418166  0.51915891     0.03200
C578        C  0.10896831  0.96436829  0.51881176    -0.12900
C579        C  0.10206878  0.50031676  0.00017255     0.00700
C580        C  0.14495798  0.53619273  0.98150660    -0.11500
C581        C  0.19419592  0.53638669  0.98114450     0.03200
C582        C  0.20078208  0.50030062  0.00014206    -0.10900
H583        H  0.07637745  0.93741892  0.53392284     0.08800
H584        H  0.13936205  0.56309363  0.96637715     0.06300
H585        H  0.23862046  0.50031768  0.00011988     0.06200
C586        C  0.99082956  0.63036656  0.68546312     0.03200
C587        C  0.44172495  0.63047902  0.68511903    -0.12900
C588        C  0.43480433  0.66646557  0.66653449     0.00700
C589        C  0.47768773  0.70243749  0.64788711    -0.11500
C590        C  0.02694897  0.70266504  0.64749628     0.03200
C591        C  0.03355391  0.66655676  0.66646518    -0.10900
H592        H  0.40914810  0.60349570  0.70022782     0.08800
H593        H  0.47207518  0.72939352  0.63281453     0.06300
H594        H  0.07142450  0.66663825  0.66645273     0.06200
C595        C  0.17620481  0.97302965  0.64781779     0.03200
C596        C  0.22530335  0.52228905  0.64816012    -0.12900
C597        C  0.23225374  0.56517615  0.66678388     0.00700
C598        C  0.18937910  0.55823555  0.68543473    -0.11500
C599        C  0.14009158  0.50918234  0.68579119     0.03200
C600        C  0.13346458  0.96644783  0.66680913    -0.10900
H601        H  0.25787085  0.52790970  0.63303996     0.08800
H602        H  0.19501526  0.59079552  0.70054332     0.06300
H603        H  0.09559016  0.92861918  0.66681313     0.06200
Fe604      Fe  0.16711122  0.76509140  0.58328051     1.65800
Fe605      Fe  0.09875858  0.83337408  0.58327467     1.73200
Fe606      Fe  0.23550328  0.90175892  0.58357433     1.54400
O607        O  0.27377538  0.87336277  0.61317664    -0.81600
O608        O  0.12037170  0.88216031  0.54560631    -0.79900
O609        O  0.21562034  0.78617718  0.62107026    -0.84100
O610        O  0.23395263  0.79350110  0.55380521    -0.79000
O611        O  0.21381420  0.92870413  0.62131960    -0.80700
O612        O  0.06040155  0.76678332  0.55362583    -0.83500
C613        C  0.26479854  0.83814764  0.54038171     0.97300
C614        C  0.25987331  0.82869690  0.62659383     1.04700
O615        O  0.16713028  0.83340646  0.58337696    -1.12500
O616        O  0.07126013  0.78457334  0.62092651    -0.74900
O617        O  0.10024433  0.72650527  0.61274410    -0.78400
O618        O  0.26311959  0.88066957  0.54586369    -0.79100
C619        C  0.06949022  0.74029942  0.62627304     0.96200
O620        O  0.11866226  0.73803120  0.54547221    -0.77000
O621        O  0.12682365  0.89997412  0.61291098    -0.82200
C622        C  0.16292247  0.92653596  0.54036456     0.98800
C623        C  0.17129826  0.93054095  0.62657949     1.04700
O624        O  0.20742041  0.94037797  0.55399572    -0.77900
C625        C  0.07435997  0.73619657  0.54006673     1.03000
C626        C  0.46458058  0.65750062  0.98079863     0.03200
C627        C  0.00071979  0.70022822  0.49979126    -0.12900
C628        C  0.03687205  0.69370995  0.51877462     0.00700
C629        C  0.03674284  0.64451968  0.51840040    -0.11500
C630        C  0.00078916  0.60159124  0.49979000     0.03200
C631        C  0.46476725  0.60844276  0.98117501    -0.10900
H632        H  0.00069006  0.73802358  0.49981201     0.08800
H633        H  0.06370474  0.63896498  0.53350467     0.06300
H634        H  0.43776689  0.57583269  0.96610945     0.06200
C635        C  0.13087162  0.99105244  0.81445278     0.03200
C636        C  0.16700414  0.53375186  0.83345906    -0.12900
C637        C  0.20308958  0.52715770  0.85245806     0.00700
C638        C  0.20288307  0.97792057  0.85209069    -0.11500
C639        C  0.16695072  0.93503999  0.83344018     0.03200
C640        C  0.13101328  0.94198023  0.81481142    -0.10900
H641        H  0.16704444  0.57158229  0.83346299     0.08800
H642        H  0.22981719  0.97232626  0.86719644     0.06300
H643        H  0.10405496  0.90943110  0.79969869     0.06200
C644        C  0.00974461  0.64032149  0.81415365     0.03200
C645        C  0.46696447  0.63371418  0.83312210    -0.12900
C646        C  0.47350808  0.67643126  0.85209301     0.00700
C647        C  0.02274898  0.72551358  0.85173995    -0.11500
C648        C  0.06568320  0.73248439  0.83313884     0.03200
C649        C  0.05883127  0.68960830  0.81452632    -0.10900
H650        H  0.42912431  0.59585129  0.83313562     0.08800
H651        H  0.02833812  0.75805507  0.86685039     0.06300
H652        H  0.09146993  0.69525069  0.79946118     0.06200
Fe653      Fe  0.26548135  0.66695724  0.91692661     1.65800
Fe654      Fe  0.33382704  0.59865455  0.91657863     1.73200
Fe655      Fe  0.40220004  0.73533355  0.91662076     1.54400
O656        O  0.37379001  0.77374631  0.88712700    -0.81600
O657        O  0.38262407  0.61988704  0.95423014    -0.79900
O658        O  0.28652933  0.71571530  0.87924102    -0.84100
O659        O  0.29386050  0.73360436  0.94652933    -0.79000
O660        O  0.42925000  0.71392787  0.87879584    -0.80700
O661        O  0.26718997  0.56006232  0.94619019    -0.83500
C662        C  0.33852923  0.76438702  0.95995444     0.97300
C663        C  0.32909752  0.75995672  0.87374781     1.04700
O664        O  0.33384297  0.66699707  0.91670896    -1.12500
O665        O  0.28510129  0.57156101  0.87890099    -0.74900
O666        O  0.22685532  0.60025479  0.88734604    -0.78400
O667        O  0.38106170  0.76271045  0.95442448    -0.79100
C668        C  0.24072651  0.56967921  0.87367796     0.96200
O669        O  0.23856726  0.61832648  0.95465805    -0.77000
O670        O  0.40043446  0.62690221  0.88695339    -0.82200
C671        C  0.42694358  0.66242853  0.95959253     0.98800
C672        C  0.43103721  0.67144939  0.87338478     1.04700
O673        O  0.44074483  0.70702794  0.94610634    -0.77900
C674        C  0.23668242  0.57397456  0.95989267     1.03000
Fe675      Fe  0.00025953  0.93180404  0.75024029     1.65800
Fe676      Fe  0.06867149  0.56850460  0.74991834     1.73200
Fe677      Fe  0.43194036  0.00009765  0.74997209     1.54400
O678        O  0.39350100  0.93324892  0.72048515    -0.81600
O679        O  0.04739337  0.59605197  0.78757842    -0.79900
O680        O  0.45155672  0.90415430  0.71254411    -0.84100
O681        O  0.43357531  0.89349832  0.77982280    -0.79000
O682        O  0.45330779  0.54857174  0.71216147    -0.80700
O683        O  0.10721037  0.54044003  0.77955769    -0.83500
C684        C  0.40286625  0.90740567  0.79328445     0.97300
C685        C  0.40731411  0.90241958  0.70706929     1.04700
O686        O  0.00028294  0.50013572  0.75004357    -1.12500
O687        O  0.09576209  0.54683738  0.71223305    -0.74900
O688        O  0.06698063  0.95987986  0.72068437    -0.78400
O689        O  0.40460090  0.95161647  0.78777420    -0.79100
C690        C  0.09758679  0.50432696  0.70700851     0.96200
O691        O  0.04888670  0.95346451  0.78797039    -0.77000
O692        O  0.04042274  0.60682912  0.72026574    -0.82200
C693        C  0.00483808  0.59777387  0.79294478     0.98800
C694        C  0.99582736  0.59287984  0.70673870     1.04700
O695        O  0.46023900  0.56695251  0.77944726    -0.77900
C696        C  0.09328503  0.99596906  0.79321861     1.03000
C697        C  0.50080563  0.04964700  0.99987489     0.03200
C698        C  0.54968590  0.04921039  0.99996703    -0.12900
C699        C  0.55012262  0.00035468  0.50013735     0.00700
C700        C  0.00078561  0.45150746  0.50020367    -0.11500
C701        C  0.95147982  0.45103397  0.50011081     0.03200
C702        C  0.95193088  0.50031501  0.99995285    -0.10900
H703        H  0.58753723  0.08704446  0.99991418     0.08800
H704        H  0.00075416  0.41368993  0.50031307     0.06300
H705        H  0.91408741  0.50026990  0.99989630     0.06200
C706        C  0.66696660  0.38309089  0.33341561     0.03200
C707        C  0.61809418  0.33374811  0.33326625    -0.12900
C708        C  0.61764176  0.28446042  0.33322454     0.00700
C709        C  0.66694696  0.28494117  0.33334804    -0.11500
C710        C  0.71627300  0.33379676  0.33351388     0.03200
C711        C  0.71584140  0.38265346  0.33353994    -0.10900
H712        H  0.58024795  0.33369771  0.33318974     0.08800
H713        H  0.66693098  0.24713135  0.33332009     0.06300
H714        H  0.75369696  0.42048235  0.33364284     0.06200
C715        C  0.88286489  0.16649908  0.16661427     0.03200
C716        C  0.88243501  0.21535365  0.16667592    -0.12900
C717        C  0.83355624  0.21578159  0.16677913     0.00700
C718        C  0.78467845  0.16644437  0.16682347    -0.11500
C719        C  0.78421823  0.11715635  0.16675100     0.03200
C720        C  0.83353026  0.11764274  0.16664524    -0.10900
H721        H  0.92028639  0.25318750  0.16664641     0.09700
H722        H  0.74683935  0.16640838  0.16690159     0.06300
H723        H  0.83351508  0.07983339  0.16659586     0.06200
C724        C  0.84353688  0.30688096  0.48123897     0.03200
C725        C  0.89264302  0.35612546  0.48160091    -0.12900
C726        C  0.89952517  0.39906241  0.50015863     0.00700
C727        C  0.85660120  0.39218756  0.01874834    -0.11500
C728        C  0.80733411  0.34311235  0.01913316     0.03200
C729        C  0.80076927  0.30035057  0.50019229    -0.10900
H730        H  0.92525650  0.36172340  0.46652717     0.08800
H731        H  0.86220683  0.42480182  0.03380023     0.06300
H732        H  0.76289677  0.26251996  0.50019581     0.06200
C733        C  0.82412911  0.29754226  0.35251863     0.03200
C734        C  0.77503892  0.29770230  0.35214700    -0.12900
C735        C  0.76821494  0.33377267  0.33357123     0.00700
C736        C  0.81116130  0.36977335  0.31497646    -0.11500
C737        C  0.86037709  0.36992970  0.31459045     0.03200
C738        C  0.86689838  0.33375060  0.33354547    -0.10900
H739        H  0.74238998  0.27066772  0.36719938     0.08800
H740        H  0.80559489  0.39674954  0.29989555     0.06300
H741        H  0.90473092  0.33375628  0.33351880     0.06200
C742        C  0.79736187  0.32367609  0.14788061     0.03200
C743        C  0.79748698  0.27459824  0.14825494    -0.12900
C744        C  0.83353388  0.26771948  0.16682351     0.00700
C745        C  0.86956828  0.31064077  0.18542355    -0.11500
C746        C  0.86973724  0.35986037  0.18582144     0.03200
C747        C  0.83356494  0.36639602  0.16685922    -0.10900
H748        H  0.77047112  0.24200995  0.13318170     0.08800
H749        H  0.89658129  0.30507129  0.20047488     0.06300
H750        H  0.83360208  0.40422430  0.16686418     0.06200
C751        C  0.65804640  0.46418169  0.01915896     0.03200
C752        C  0.60896825  0.46436831  0.01881175    -0.12900
C753        C  0.60206877  0.00031680  0.50017264     0.00700
C754        C  0.64495789  0.03619269  0.48150660    -0.11500
C755        C  0.69419589  0.03638676  0.48114451     0.03200
C756        C  0.70078205  0.00030070  0.50014208    -0.10900
H757        H  0.57637741  0.43741903  0.03392286     0.08800
H758        H  0.63936187  0.06309353  0.46637709     0.06300
H759        H  0.73862050  0.00031783  0.50011992     0.06200
C760        C  0.49082962  0.13036660  0.18546312     0.03200
C761        C  0.94172491  0.13047906  0.18511907    -0.12900
C762        C  0.93480429  0.16646558  0.16653451     0.00700
C763        C  0.97768773  0.20243756  0.14788714    -0.11500
C764        C  0.52694897  0.20266511  0.14749631     0.03200
C765        C  0.53355392  0.16655683  0.16646518    -0.10900
H766        H  0.90914807  0.10349571  0.20022785     0.08800
H767        H  0.97207520  0.22939356  0.13281456     0.06300
H768        H  0.57142451  0.16663827  0.16645269     0.06200
C769        C  0.67620485  0.47302970  0.14781775     0.03200
C770        C  0.72530331  0.02228905  0.14816011    -0.12900
C771        C  0.73225372  0.06517616  0.16678383     0.00700
C772        C  0.68937911  0.05823553  0.18543467    -0.11500
C773        C  0.64009165  0.00918232  0.18579122     0.03200
C774        C  0.63346475  0.46644792  0.16680916    -0.10900
H775        H  0.75787104  0.02790972  0.13303990     0.08800
H776        H  0.69501534  0.09079580  0.20054335     0.06300
H777        H  0.59559024  0.42861910  0.16681319     0.06200
Fe778      Fe  0.66711117  0.26509138  0.08328049     1.65800
Fe779      Fe  0.59875861  0.33337397  0.08327467     1.73200
Fe780      Fe  0.73550337  0.40175893  0.08357433     1.54400
O781        O  0.77377544  0.37336270  0.11317661    -0.81600
O782        O  0.62037184  0.38216030  0.04560636    -0.79900
O783        O  0.71562033  0.28617711  0.12107027    -0.84100
O784        O  0.73395257  0.29350113  0.05380513    -0.79000
O785        O  0.71381418  0.42870411  0.12131959    -0.80700
O786        O  0.56040156  0.26678327  0.05362585    -0.83500
C787        C  0.76479855  0.33814767  0.04038164     0.97300
C788        C  0.75987331  0.32869685  0.12659384     1.04700
O789        O  0.66713034  0.33340646  0.08337700    -1.12500
O790        O  0.57126004  0.28457323  0.12092644    -0.74900
O791        O  0.60024413  0.22650511  0.11274401    -0.78400
O792        O  0.76311960  0.38066961  0.04586360    -0.79100
C793        C  0.56949010  0.24029934  0.12627299     0.96200
O794        O  0.61866221  0.23803114  0.04547222    -0.77000
O795        O  0.62682353  0.39997389  0.11291105    -0.82200
C796        C  0.66292254  0.42653601  0.04036463     0.98800
C797        C  0.67129821  0.43054090  0.12657948     1.04700
O798        O  0.70742055  0.44037804  0.05399574    -0.77900
C799        C  0.57435992  0.23619648  0.04006677     1.03000
C800        C  0.96458067  0.15750069  0.48079860     0.03200
C801        C  0.50071986  0.20022830  0.99979123    -0.12900
C802        C  0.53687197  0.19370990  0.01877464     0.00700
C803        C  0.53674274  0.14451960  0.01840043    -0.11500
C804        C  0.50078904  0.10159117  0.99979000     0.03200
C805        C  0.96476739  0.10844289  0.48117506    -0.10900
H806        H  0.50069023  0.23802367  0.99981192     0.08800
H807        H  0.56370449  0.13896491  0.03350460     0.06300
H808        H  0.93776679  0.07583252  0.46610936     0.06200
C809        C  0.63087172  0.49105255  0.31445275     0.03200
C810        C  0.66700405  0.03375187  0.33345907    -0.12900
C811        C  0.70308938  0.02715757  0.35245814     0.00700
C812        C  0.70288298  0.47792054  0.35209071    -0.11500
C813        C  0.66695074  0.43504003  0.33344011     0.03200
C814        C  0.63101335  0.44198036  0.31481139    -0.10900
H815        H  0.66704444  0.07158218  0.33346298     0.08800
H816        H  0.72981703  0.47232613  0.36719651     0.06300
H817        H  0.60405497  0.40943112  0.29969859     0.06200
C818        C  0.50974466  0.14032146  0.31415370     0.03200
C819        C  0.96696440  0.13371419  0.33312212    -0.12900
C820        C  0.97350805  0.17643124  0.35209307     0.00700
C821        C  0.52274907  0.22551354  0.35174001    -0.11500
C822        C  0.56568330  0.23248437  0.33313888     0.03200
C823        C  0.55883124  0.18960831  0.31452633    -0.10900
H824        H  0.92912415  0.09585124  0.33313564     0.08800
H825        H  0.52833823  0.25805506  0.36685045     0.06300
H826        H  0.59147009  0.19525081  0.29946102     0.06200
Fe827      Fe  0.76548148  0.16695729  0.41692660     1.65800
Fe828      Fe  0.83382694  0.09865444  0.41657866     1.73200
Fe829      Fe  0.90220002  0.23533358  0.41662080     1.54400
O830        O  0.87378997  0.27374636  0.38712704    -0.81600
O831        O  0.88262405  0.11988704  0.45423018    -0.79900
O832        O  0.78652933  0.21571533  0.37924104    -0.84100
O833        O  0.79386068  0.23360446  0.44652926    -0.79000
O834        O  0.92924996  0.21392788  0.37879587    -0.80700
O835        O  0.76718990  0.06006222  0.44619022    -0.83500
C836        C  0.83852930  0.26438706  0.45995445     0.97300
C837        C  0.82909751  0.25995676  0.37374783     1.04700
O838        O  0.83384298  0.16699702  0.41670899    -1.12500
O839        O  0.78510121  0.07156089  0.37890100    -0.74900
O840        O  0.72685539  0.10025483  0.38734607    -0.78400
O841        O  0.88106179  0.26271051  0.45442455    -0.79100
C842        C  0.74072643  0.06967914  0.37367799     0.96200
O843        O  0.73856738  0.11832654  0.45465801    -0.77000
O844        O  0.90043437  0.12690218  0.38695343    -0.82200
C845        C  0.92694360  0.16242855  0.45959254     0.98800
C846        C  0.93103719  0.17144940  0.37338485     1.04700
O847        O  0.94074480  0.20702796  0.44610637    -0.77900
C848        C  0.73668244  0.07397457  0.45989267     1.03000
Fe849      Fe  0.50025967  0.43180404  0.25024031     1.65800
Fe850      Fe  0.56867159  0.06850463  0.24991832     1.73200
Fe851      Fe  0.93194045  0.50009774  0.24997212     1.54400
O852        O  0.89350108  0.43324896  0.22048519    -0.81600
O853        O  0.54739338  0.09605197  0.28757842    -0.79900
O854        O  0.95155678  0.40415431  0.21254411    -0.84100
O855        O  0.93357527  0.39349830  0.27982277    -0.79000
O856        O  0.95330789  0.04857177  0.21216147    -0.80700
O857        O  0.60721044  0.04044005  0.27955761    -0.83500
C858        C  0.90286624  0.40740570  0.29328443     0.97300
C859        C  0.90731416  0.40241959  0.20706932     1.04700
O860        O  0.50028301  0.00013572  0.25004359    -1.12500
O861        O  0.59576227  0.04683738  0.21223310    -0.74900
O862        O  0.56698079  0.45987977  0.22068438    -0.78400
O863        O  0.90460104  0.45161658  0.28777424    -0.79100
C864        C  0.59758688  0.00432694  0.20700854     0.96200
O865        O  0.54888691  0.45346459  0.28797036    -0.77000
O866        O  0.54042293  0.10682910  0.22026561    -0.82200
C867        C  0.50483807  0.09777382  0.29294483     0.98800
C868        C  0.49582748  0.09287986  0.20673864     1.04700
O869        O  0.96023900  0.06695248  0.27944730    -0.77900
C870        C  0.59328523  0.49596918  0.29321854     1.03000
C871        C  0.50080569  0.04964707  0.49987494     0.03200
C872        C  0.54968593  0.04921041  0.49996706    -0.12900
C873        C  0.55012259  0.00035466  0.00013728     0.00700
C874        C  0.00078557  0.45150737  0.00020354    -0.11500
C875        C  0.95147979  0.45103392  0.00011079     0.03200
C876        C  0.95193088  0.50031505  0.49995287    -0.10900
H877        H  0.58753736  0.08704458  0.49991421     0.08800
H878        H  0.00075406  0.41368995  0.00031286     0.06300
H879        H  0.91408742  0.50026996  0.49989631     0.06200
C880        C  0.66696661  0.38309088  0.83341575     0.03200
C881        C  0.61809408  0.33374813  0.83326625    -0.12900
C882        C  0.61764172  0.28446042  0.83322452     0.00700
C883        C  0.66694685  0.28494115  0.83334803    -0.11500
C884        C  0.71627294  0.33379665  0.83351388     0.03200
C885        C  0.71584137  0.38265339  0.83354008    -0.10900
H886        H  0.58024826  0.33369773  0.83318969     0.08800
H887        H  0.66693081  0.24713109  0.83332011     0.06300
H888        H  0.75369703  0.42048227  0.83364302     0.06200
C889        C  0.88286495  0.16649910  0.66661424     0.03200
C890        C  0.88243498  0.21535362  0.66667588    -0.12900
C891        C  0.83355625  0.21578155  0.66677911     0.00700
C892        C  0.78467844  0.16644430  0.66682344    -0.11500
C893        C  0.78421827  0.11715629  0.66675098     0.03200
C894        C  0.83353033  0.11764281  0.66664520    -0.10900
H895        H  0.92028656  0.25318773  0.66664637     0.09700
H896        H  0.74683936  0.16640828  0.66690157     0.06300
H897        H  0.83351522  0.07983316  0.66659581     0.06200
C898        C  0.84353686  0.30688089  0.98123894     0.03200
C899        C  0.89264309  0.35612540  0.98160088    -0.12900
C900        C  0.89952515  0.39906234  0.00015861     0.00700
C901        C  0.85660120  0.39218752  0.51874835    -0.11500
C902        C  0.80733411  0.34311237  0.51913323     0.03200
C903        C  0.80076924  0.30035062  0.00019217    -0.10900
H904        H  0.92525633  0.36172327  0.96652724     0.08800
H905        H  0.86220694  0.42480214  0.53380039     0.06300
H906        H  0.76289665  0.26251999  0.00019561     0.06200
C907        C  0.82412916  0.29754227  0.85251858     0.03200
C908        C  0.77503892  0.29770220  0.85214695    -0.12900
C909        C  0.76821486  0.33377252  0.83357117     0.00700
C910        C  0.81116124  0.36977323  0.81497640    -0.11500
C911        C  0.86037711  0.36992975  0.81459042     0.03200
C912        C  0.86689853  0.33375071  0.83354545    -0.10900
H913        H  0.74239004  0.27066764  0.86719936     0.08800
H914        H  0.80559475  0.39674944  0.79989549     0.06300
H915        H  0.90473082  0.33375654  0.83351887     0.06200
C916        C  0.79736178  0.32367601  0.64788063     0.03200
C917        C  0.79748690  0.27459819  0.64825505    -0.12900
C918        C  0.83353385  0.26771942  0.66682355     0.00700
C919        C  0.86956838  0.31064079  0.68542350    -0.11500
C920        C  0.86973725  0.35986033  0.68582140     0.03200
C921        C  0.83356494  0.36639597  0.66685920    -0.10900
H922        H  0.77047088  0.24200967  0.63318172     0.08800
H923        H  0.89658150  0.30507139  0.70047479     0.06300
H924        H  0.83360214  0.40422426  0.66686413     0.06200
C925        C  0.65804650  0.46418182  0.51915895     0.03200
C926        C  0.60896831  0.46436831  0.51881173    -0.12900
C927        C  0.60206874  0.00031674  0.00017253     0.00700
C928        C  0.64495794  0.03619270  0.98150657    -0.11500
C929        C  0.69419589  0.03638666  0.98114450     0.03200
C930        C  0.70078201  0.00030058  0.00014206    -0.10900
H931        H  0.57637744  0.43741889  0.53392281     0.08800
H932        H  0.63936203  0.06309359  0.96637713     0.06300
H933        H  0.73862037  0.00031761  0.00011988     0.06200
C934        C  0.49082960  0.13036657  0.68546311     0.03200
C935        C  0.94172493  0.13047901  0.68511903    -0.12900
C936        C  0.93480432  0.16646562  0.66653451     0.00700
C937        C  0.97768768  0.20243752  0.64788711    -0.11500
C938        C  0.52694898  0.20266514  0.64749631     0.03200
C939        C  0.53355395  0.16655691  0.66646522    -0.10900
H940        H  0.90914808  0.10349564  0.70022776     0.08800
H941        H  0.97207506  0.22939351  0.63281444     0.06300
H942        H  0.57142460  0.16663849  0.66645275     0.06200
C943        C  0.67620485  0.47302971  0.64781777     0.03200
C944        C  0.72530334  0.02228901  0.64816012    -0.12900
C945        C  0.73225371  0.06517609  0.66678387     0.00700
C946        C  0.68937908  0.05823548  0.68543473    -0.11500
C947        C  0.64009155  0.00918223  0.68579120     0.03200
C948        C  0.63346463  0.46644786  0.66680913    -0.10900
H949        H  0.75787078  0.02790964  0.63303997     0.08800
H950        H  0.69501525  0.09079546  0.70054332     0.06300
H951        H  0.59559030  0.42861926  0.66681313     0.06200
Fe952      Fe  0.66711120  0.26509139  0.58328050     1.65800
Fe953      Fe  0.59875856  0.33337409  0.58327466     1.73200
Fe954      Fe  0.73550327  0.40175890  0.58357434     1.54400
O955        O  0.77377533  0.37336269  0.61317664    -0.81600
O956        O  0.62037173  0.38216047  0.54560634    -0.79900
O957        O  0.71562029  0.28617709  0.62107026    -0.84100
O958        O  0.73395262  0.29350106  0.55380521    -0.79000
O959        O  0.71381418  0.42870409  0.62131961    -0.80700
O960        O  0.56040150  0.26678330  0.55362585    -0.83500
C961        C  0.76479852  0.33814759  0.54038171     0.97300
C962        C  0.75987326  0.32869681  0.62659383     1.04700
O963        O  0.66713027  0.33340645  0.58337697    -1.12500
O964        O  0.57126012  0.28457333  0.62092648    -0.74900
O965        O  0.60024428  0.22650522  0.61274410    -0.78400
O966        O  0.76311954  0.38066952  0.54586370    -0.79100
C967        C  0.56949019  0.24029942  0.62627303     0.96200
O968        O  0.61866233  0.23803137  0.54547216    -0.77000
O969        O  0.62682362  0.39997409  0.61291100    -0.82200
C970        C  0.66292255  0.42653610  0.54036459     0.98800
C971        C  0.67129826  0.43054095  0.62657949     1.04700
O972        O  0.70742049  0.44037802  0.55399571    -0.77900
C973        C  0.57435997  0.23619662  0.54006673     1.03000
C974        C  0.96458054  0.15750066  0.98079863     0.03200
C975        C  0.50071981  0.20022830  0.49979124    -0.12900
C976        C  0.53687207  0.19371001  0.51877460     0.00700
C977        C  0.53674288  0.14451975  0.51840036    -0.11500
C978        C  0.50078914  0.10159125  0.49979001     0.03200
C979        C  0.96476730  0.10844288  0.98117501    -0.10900
H980        H  0.50069013  0.23802361  0.49981195     0.08800
H981        H  0.56370484  0.13896507  0.53350460     0.06300
H982        H  0.93776677  0.07583260  0.96610929     0.06200
C983        C  0.63087161  0.49105248  0.81445279     0.03200
C984        C  0.66700413  0.03375189  0.83345905    -0.12900
C985        C  0.70308955  0.02715768  0.85245807     0.00700
C986        C  0.70288309  0.47792064  0.85209069    -0.11500
C987        C  0.66695077  0.43504005  0.83344016     0.03200
C988        C  0.63101325  0.44198024  0.81481139    -0.10900
H989        H  0.66704441  0.07158219  0.83346297     0.08800
H990        H  0.72981720  0.47232632  0.86719647     0.06300
H991        H  0.60405512  0.40943130  0.79969877     0.06200
C992        C  0.50974458  0.14032150  0.81415365     0.03200
C993        C  0.96696446  0.13371415  0.83312210    -0.12900
C994        C  0.97350805  0.17643122  0.85209301     0.00700
C995        C  0.52274909  0.22551354  0.85174004    -0.11500
C996        C  0.56568326  0.23248438  0.83313890     0.03200
C997        C  0.55883130  0.18960829  0.81452634    -0.10900
H998        H  0.92912428  0.09585124  0.83313562     0.08800
H999        H  0.52833829  0.25805517  0.86685056     0.06300
H1000       H  0.59146991  0.19525068  0.79946119     0.06200
Fe1001     Fe  0.76548133  0.16695722  0.91692661     1.65800
Fe1002     Fe  0.83382700  0.09865449  0.91657863     1.73200
Fe1003     Fe  0.90220001  0.23533352  0.91662076     1.54400
O1004       O  0.87379009  0.27374645  0.88712701    -0.81600
O1005       O  0.88262405  0.11988702  0.95423013    -0.79900
O1006       O  0.78652941  0.21571542  0.87924104    -0.84100
O1007       O  0.79386046  0.23360429  0.94652934    -0.79000
O1008       O  0.92924995  0.21392779  0.87879583    -0.80700
O1009       O  0.76718995  0.06006230  0.94619019    -0.83500
C1010       C  0.83852919  0.26438694  0.95995444     0.97300
C1011       C  0.82909759  0.25995683  0.87374781     1.04700
O1012       O  0.83384293  0.16699701  0.91670895    -1.12500
O1013       O  0.78510125  0.07156093  0.87890100    -0.74900
O1014       O  0.72685529  0.10025475  0.88734604    -0.78400
O1015       O  0.88106165  0.26271038  0.95442448    -0.79100
C1016       C  0.74072647  0.06967916  0.87367796     0.96200
O1017       O  0.73856723  0.11832644  0.95465805    -0.77000
O1018       O  0.90043442  0.12690213  0.88695339    -0.82200
C1019       C  0.92694356  0.16242856  0.95959253     0.98800
C1020       C  0.93103717  0.17144932  0.87338478     1.04700
O1021       O  0.94074479  0.20702791  0.94610633    -0.77900
C1022       C  0.73668242  0.07397456  0.95989268     1.03000
Fe1023     Fe  0.50025958  0.43180417  0.75024029     1.65800
Fe1024     Fe  0.56867148  0.06850455  0.74991834     1.73200
Fe1025     Fe  0.93194045  0.50009771  0.74997209     1.54400
O1026       O  0.89350100  0.43324889  0.72048516    -0.81600
O1027       O  0.54739325  0.09605188  0.78757841    -0.79900
O1028       O  0.95155675  0.40415428  0.71254411    -0.84100
O1029       O  0.93357546  0.39349859  0.77982281    -0.79000
O1030       O  0.95330777  0.04857172  0.71216148    -0.80700
O1031       O  0.60721031  0.04043997  0.77955770    -0.83500
C1032       C  0.90286635  0.40740588  0.79328446     0.97300
C1033       C  0.90731411  0.40241953  0.70706930     1.04700
O1034       O  0.50028285  0.00013565  0.75004358    -1.12500
O1035       O  0.59576226  0.04683741  0.71223309    -0.74900
O1036       O  0.56698062  0.45987989  0.72068435    -0.78400
O1037       O  0.90460100  0.45161667  0.78777423    -0.79100
C1038       C  0.59758678  0.00432691  0.70700852     0.96200
O1039       O  0.54888673  0.45346457  0.78797038    -0.77000
O1040       O  0.54042277  0.10682908  0.72026574    -0.82200
C1041       C  0.50483799  0.09777382  0.79294478     0.98800
C1042       C  0.49582740  0.09287980  0.70673867     1.04700
O1043       O  0.96023892  0.06695242  0.77944728    -0.77900
C1044       C  0.59328503  0.49596913  0.79321862     1.03000
C1045       C  0.50080571  0.54964704  0.99987489     0.03200
C1046       C  0.54968604  0.54921049  0.99996702    -0.12900
C1047       C  0.55012259  0.50035473  0.50013736     0.00700
C1048       C  0.00078558  0.95150732  0.50020367    -0.11500
C1049       C  0.95147981  0.95103396  0.50011081     0.03200
C1050       C  0.95193091  0.00031498  0.99995285    -0.10900
H1051       H  0.58753715  0.58704435  0.99991417     0.08800
H1052       H  0.00075409  0.91369007  0.50031309     0.06300
H1053       H  0.91408707  0.00026985  0.99989628     0.06200
C1054       C  0.66696658  0.88309084  0.33341560     0.03200
C1055       C  0.61809416  0.83374809  0.33326625    -0.12900
C1056       C  0.61764172  0.78446040  0.33322455     0.00700
C1057       C  0.66694692  0.78494123  0.33334804    -0.11500
C1058       C  0.71627300  0.83379672  0.33351388     0.03200
C1059       C  0.71584132  0.88265335  0.33353995    -0.10900
H1060       H  0.58024793  0.83369769  0.33318976     0.08800
H1061       H  0.66693092  0.74713096  0.33332010     0.06300
H1062       H  0.75369719  0.92048251  0.33364286     0.06200
C1063       C  0.88286489  0.66649905  0.16661428     0.03200
C1064       C  0.88243495  0.71535355  0.16667592    -0.12900
C1065       C  0.83355629  0.71578160  0.16677913     0.00700
C1066       C  0.78467844  0.66644440  0.16682347    -0.11500
C1067       C  0.78421824  0.61715637  0.16675099     0.03200
C1068       C  0.83353024  0.61764283  0.16664523    -0.10900
H1069       H  0.92028673  0.75318775  0.16664641     0.09700
H1070       H  0.74683941  0.66640844  0.16690160     0.06300
H1071       H  0.83351505  0.57983307  0.16659586     0.06200
C1072       C  0.84353694  0.80688096  0.48123897     0.03200
C1073       C  0.89264306  0.85612551  0.48160090    -0.12900
C1074       C  0.89952514  0.89906244  0.50015860     0.00700
C1075       C  0.85660114  0.89218762  0.01874834    -0.11500
C1076       C  0.80733409  0.84311236  0.01913316     0.03200
C1077       C  0.80076933  0.80035059  0.50019228    -0.10900
H1078       H  0.92525655  0.86172350  0.46652716     0.08800
H1079       H  0.86220674  0.92480187  0.03380023     0.06300
H1080       H  0.76289679  0.76251998  0.50019573     0.06200
C1081       C  0.82412913  0.79754233  0.35251863     0.03200
C1082       C  0.77503901  0.79770240  0.35214698    -0.12900
C1083       C  0.76821495  0.83377269  0.33357122     0.00700
C1084       C  0.81116132  0.86977342  0.31497646    -0.11500
C1085       C  0.86037711  0.86992976  0.31459043     0.03200
C1086       C  0.86689841  0.83375070  0.33354546    -0.10900
H1087       H  0.74238991  0.77066767  0.36719945     0.08800
H1088       H  0.80559487  0.89674959  0.29989554     0.06300
H1089       H  0.90473094  0.83375637  0.33351880     0.06200
C1090       C  0.79736191  0.82367602  0.14788057     0.03200
C1091       C  0.79748705  0.77459822  0.14825498    -0.12900
C1092       C  0.83353395  0.76771947  0.16682351     0.00700
C1093       C  0.86956843  0.81064078  0.18542356    -0.11500
C1094       C  0.86973718  0.85986031  0.18582148     0.03200
C1095       C  0.83356486  0.86639583  0.16685925    -0.10900
H1096       H  0.77047099  0.74200973  0.13318167     0.08800
H1097       H  0.89658135  0.80507140  0.20047476     0.06300
H1098       H  0.83360190  0.90422433  0.16686423     0.06200
C1099       C  0.65804638  0.96418172  0.01915897     0.03200
C1100       C  0.60896825  0.96436835  0.01881176    -0.12900
C1101       C  0.60206874  0.50031677  0.50017260     0.00700
C1102       C  0.64495788  0.53619273  0.48150658    -0.11500
C1103       C  0.69419592  0.53638679  0.48114451     0.03200
C1104       C  0.70078223  0.50030081  0.50014207    -0.10900
H1105       H  0.57637741  0.93741912  0.03392289     0.08800
H1106       H  0.63936186  0.56309340  0.46637716     0.06300
H1107       H  0.73862032  0.50031794  0.50011985     0.06200
C1108       C  0.49082952  0.63036651  0.18546313     0.03200
C1109       C  0.94172488  0.63047892  0.18511904    -0.12900
C1110       C  0.93480428  0.66646554  0.16653454     0.00700
C1111       C  0.97768767  0.70243761  0.14788714    -0.11500
C1112       C  0.52694891  0.70266511  0.14749632     0.03200
C1113       C  0.53355384  0.66655682  0.16646520    -0.10900
H1114       H  0.90914805  0.60349550  0.20022772     0.08800
H1115       H  0.97207513  0.72939335  0.13281468     0.06300
H1116       H  0.57142440  0.66663826  0.16645269     0.06200
C1117       C  0.67620482  0.97302972  0.14781774     0.03200
C1118       C  0.72530331  0.52228902  0.14816014    -0.12900
C1119       C  0.73225374  0.56517616  0.16678384     0.00700
C1120       C  0.68937912  0.55823557  0.18543466    -0.11500
C1121       C  0.64009167  0.50918232  0.18579121     0.03200
C1122       C  0.63346475  0.96644796  0.16680916    -0.10900
H1123       H  0.75787109  0.52790968  0.13303987     0.08800
H1124       H  0.69501532  0.59079577  0.20054329     0.06300
H1125       H  0.59559012  0.92861902  0.16681321     0.06200
Fe1126     Fe  0.66711115  0.76509140  0.08328049     1.65800
Fe1127     Fe  0.59875855  0.83337401  0.08327467     1.73200
Fe1128     Fe  0.73550332  0.90175894  0.08357433     1.54400
O1129       O  0.77377534  0.87336261  0.11317662    -0.81600
O1130       O  0.62037179  0.88216037  0.04560637    -0.79900
O1131       O  0.71562030  0.78617700  0.12107026    -0.84100
O1132       O  0.73395262  0.79350098  0.05380515    -0.79000
O1133       O  0.71381413  0.92870415  0.12131959    -0.80700
O1134       O  0.56040151  0.76678330  0.05362584    -0.83500
C1135       C  0.76479850  0.83814755  0.04038165     0.97300
C1136       C  0.75987329  0.82869673  0.12659380     1.04700
O1137       O  0.66713031  0.83340652  0.08337701    -1.12500
O1138       O  0.57126001  0.78457325  0.12092644    -0.74900
O1139       O  0.60024409  0.72650513  0.11274401    -0.78400
O1140       O  0.76311939  0.88066940  0.04586360    -0.79100
C1141       C  0.56949008  0.74029934  0.12627299     0.96200
O1142       O  0.61866222  0.73803125  0.04547222    -0.77000
O1143       O  0.62682347  0.89997393  0.11291106    -0.82200
C1144       C  0.66292250  0.92653607  0.04036465     0.98800
C1145       C  0.67129815  0.93054091  0.12657950     1.04700
O1146       O  0.70742052  0.94037810  0.05399575    -0.77900
C1147       C  0.57435989  0.73619652  0.04006677     1.03000
C1148       C  0.96458062  0.65750067  0.48079862     0.03200
C1149       C  0.50071983  0.70022822  0.99979123    -0.12900
C1150       C  0.53687201  0.69370989  0.01877463     0.00700
C1151       C  0.53674290  0.64451965  0.01840037    -0.11500
C1152       C  0.50078916  0.60159121  0.99978998     0.03200
C1153       C  0.96476736  0.60844287  0.48117503    -0.10900
H1154       H  0.50069018  0.73802352  0.99981194     0.08800
H1155       H  0.56370474  0.63896500  0.03350453     0.06300
H1156       H  0.93776677  0.57583253  0.46610936     0.06200
C1157       C  0.63087161  0.99105251  0.31445276     0.03200
C1158       C  0.66700418  0.53375197  0.33345906    -0.12900
C1159       C  0.70308947  0.52715760  0.35245811     0.00700
C1160       C  0.70288287  0.97792046  0.35209073    -0.11500
C1161       C  0.66695067  0.93503997  0.33344009     0.03200
C1162       C  0.63101317  0.94198022  0.31481137    -0.10900
H1163       H  0.66704458  0.57158218  0.33346296     0.08800
H1164       H  0.72981690  0.97232605  0.36719651     0.06300
H1165       H  0.60405498  0.90943124  0.29969869     0.06200
C1166       C  0.50974460  0.64032151  0.31415368     0.03200
C1167       C  0.96696445  0.63371427  0.33312213    -0.12900
C1168       C  0.97350812  0.67643132  0.35209309     0.00700
C1169       C  0.52274903  0.72551348  0.35174002    -0.11500
C1170       C  0.56568325  0.73248439  0.33313888     0.03200
C1171       C  0.55883113  0.68960832  0.31452635    -0.10900
H1172       H  0.92912424  0.59585141  0.33313560     0.08800
H1173       H  0.52833822  0.75805512  0.36685058     0.06300
H1174       H  0.59147020  0.69525086  0.29946095     0.06200
Fe1175     Fe  0.76548138  0.66695719  0.41692660     1.65800
Fe1176     Fe  0.83382702  0.59865445  0.41657867     1.73200
Fe1177     Fe  0.90220000  0.73533359  0.41662080     1.54400
O1178       O  0.87378992  0.77374641  0.38712707    -0.81600
O1179       O  0.88262407  0.61988716  0.45423020    -0.79900
O1180       O  0.78652927  0.71571534  0.37924104    -0.84100
O1181       O  0.79386064  0.73360446  0.44652923    -0.79000
O1182       O  0.92924995  0.71392797  0.37879584    -0.80700
O1183       O  0.76718997  0.56006217  0.44619024    -0.83500
C1184       C  0.83852930  0.76438703  0.45995444     0.97300
C1185       C  0.82909748  0.75995680  0.37374784     1.04700
O1186       O  0.83384295  0.66699699  0.41670897    -1.12500
O1187       O  0.78510123  0.57156076  0.37890102    -0.74900
O1188       O  0.72685533  0.60025465  0.38734610    -0.78400
O1189       O  0.88106172  0.76271034  0.45442459    -0.79100
C1190       C  0.74072646  0.56967907  0.37367800     0.96200
O1191       O  0.73856738  0.61832646  0.45465800    -0.77000
O1192       O  0.90043443  0.62690229  0.38695342    -0.82200
C1193       C  0.92694365  0.66242862  0.45959254     0.98800
C1194       C  0.93103723  0.67144950  0.37338484     1.04700
O1195       O  0.94074493  0.70702803  0.44610633    -0.77900
C1196       C  0.73668245  0.57397452  0.45989266     1.03000
Fe1197     Fe  0.50025964  0.93180410  0.25024031     1.65800
Fe1198     Fe  0.56867159  0.56850462  0.24991832     1.73200
Fe1199     Fe  0.93194050  0.00009774  0.24997210     1.54400
O1200       O  0.89350103  0.93324898  0.22048517    -0.81600
O1201       O  0.54739336  0.59605204  0.28757842    -0.79900
O1202       O  0.95155678  0.90415437  0.21254413    -0.84100
O1203       O  0.93357545  0.89349842  0.27982283    -0.79000
O1204       O  0.95330784  0.54857164  0.21216145    -0.80700
O1205       O  0.60721055  0.54044007  0.27955759    -0.83500
C1206       C  0.90286629  0.90740575  0.29328442     0.97300
C1207       C  0.90731412  0.90241959  0.20706933     1.04700
O1208       O  0.50028304  0.50013570  0.25004361    -1.12500
O1209       O  0.59576216  0.54683726  0.21223310    -0.74900
O1210       O  0.56698072  0.95987986  0.22068438    -0.78400
O1211       O  0.90460104  0.95161658  0.28777420    -0.79100
C1212       C  0.59758691  0.50432688  0.20700856     0.96200
O1213       O  0.54888680  0.95346460  0.28797037    -0.77000
O1214       O  0.54042281  0.60682896  0.22026561    -0.82200
C1215       C  0.50483802  0.59777388  0.29294482     0.98800
C1216       C  0.49582737  0.59287968  0.20673861     1.04700
O1217       O  0.96023897  0.56695256  0.27944730    -0.77900
C1218       C  0.59328511  0.99596915  0.29321855     1.03000
C1219       C  0.50080565  0.54964708  0.49987494     0.03200
C1220       C  0.54968590  0.54921045  0.49996705    -0.12900
C1221       C  0.55012261  0.50035468  0.00013729     0.00700
C1222       C  0.00078552  0.95150733  0.00020355    -0.11500
C1223       C  0.95147974  0.95103390  0.00011080     0.03200
C1224       C  0.95193089  0.00031503  0.49995288    -0.10900
H1225       H  0.58753732  0.58704462  0.49991419     0.08800
H1226       H  0.00075400  0.91368984  0.00031286     0.06300
H1227       H  0.91408744  0.00026994  0.49989632     0.06200
C1228       C  0.66696660  0.88309088  0.83341576     0.03200
C1229       C  0.61809416  0.83374813  0.83326625    -0.12900
C1230       C  0.61764170  0.78446043  0.83322449     0.00700
C1231       C  0.66694687  0.78494117  0.83334802    -0.11500
C1232       C  0.71627295  0.83379670  0.83351387     0.03200
C1233       C  0.71584139  0.88265343  0.83354008    -0.10900
H1234       H  0.58024795  0.83369772  0.83318968     0.08800
H1235       H  0.66693082  0.74713112  0.83332010     0.06300
H1236       H  0.75369699  0.92048229  0.83364301     0.06200
C1237       C  0.88286493  0.66649909  0.66661424     0.03200
C1238       C  0.88243506  0.71535368  0.66667588    -0.12900
C1239       C  0.83355628  0.71578161  0.66677911     0.00700
C1240       C  0.78467846  0.66644438  0.66682344    -0.11500
C1241       C  0.78421823  0.61715636  0.66675099     0.03200
C1242       C  0.83353029  0.61764284  0.66664520    -0.10900
H1243       H  0.92028644  0.75318753  0.66664638     0.09700
H1244       H  0.74683934  0.66640837  0.66690157     0.06300
H1245       H  0.83351513  0.57983319  0.66659582     0.06200
C1246       C  0.84353687  0.80688097  0.98123893     0.03200
C1247       C  0.89264303  0.85612546  0.98160090    -0.12900
C1248       C  0.89952511  0.89906238  0.00015861     0.00700
C1249       C  0.85660120  0.89218755  0.51874835    -0.11500
C1250       C  0.80733418  0.84311233  0.51913327     0.03200
C1251       C  0.80076934  0.80035069  0.00019220    -0.10900
H1252       H  0.92525647  0.86172336  0.96652718     0.08800
H1253       H  0.86220690  0.92480212  0.53380034     0.06300
H1254       H  0.76289661  0.76251983  0.00019565     0.06200
C1255       C  0.82412907  0.79754221  0.85251860     0.03200
C1256       C  0.77503885  0.79770223  0.85214699    -0.12900
C1257       C  0.76821489  0.83377260  0.83357118     0.00700
C1258       C  0.81116128  0.86977329  0.81497643    -0.11500
C1259       C  0.86037711  0.86992966  0.81459044     0.03200
C1260       C  0.86689834  0.83375053  0.83354545    -0.10900
H1261       H  0.74239010  0.77066783  0.86719931     0.08800
H1262       H  0.80559490  0.89674950  0.79989552     0.06300
H1263       H  0.90473091  0.83375620  0.83351880     0.06200
C1264       C  0.79736180  0.82367608  0.64788066     0.03200
C1265       C  0.79748693  0.77459825  0.64825506    -0.12900
C1266       C  0.83353393  0.76771950  0.66682352     0.00700
C1267       C  0.86956840  0.81064086  0.68542350    -0.11500
C1268       C  0.86973726  0.85986040  0.68582140     0.03200
C1269       C  0.83356494  0.86639604  0.66685921    -0.10900
H1270       H  0.77047091  0.74200975  0.63318176     0.08800
H1271       H  0.89658152  0.80507144  0.70047482     0.06300
H1272       H  0.83360213  0.90422435  0.66686414     0.06200
C1273       C  0.65804641  0.96418167  0.51915893     0.03200
C1274       C  0.60896826  0.96436828  0.51881176    -0.12900
C1275       C  0.60206874  0.50031675  0.00017255     0.00700
C1276       C  0.64495791  0.53619272  0.98150660    -0.11500
C1277       C  0.69419584  0.53638669  0.98114450     0.03200
C1278       C  0.70078201  0.50030063  0.00014206    -0.10900
H1279       H  0.57637740  0.93741891  0.53392284     0.08800
H1280       H  0.63936198  0.56309363  0.96637715     0.06300
H1281       H  0.73862040  0.50031771  0.00011987     0.06200
C1282       C  0.49082960  0.63036656  0.68546312     0.03200
C1283       C  0.94172491  0.63047902  0.68511903    -0.12900
C1284       C  0.93480431  0.66646556  0.66653447     0.00700
C1285       C  0.97768774  0.70243750  0.64788710    -0.11500
C1286       C  0.52694896  0.70266505  0.64749628     0.03200
C1287       C  0.53355393  0.66655678  0.66646517    -0.10900
H1288       H  0.90914806  0.60349571  0.70022781     0.08800
H1289       H  0.97207522  0.72939352  0.63281453     0.06300
H1290       H  0.57142454  0.66663829  0.66645271     0.06200
C1291       C  0.67620484  0.97302966  0.64781779     0.03200
C1292       C  0.72530327  0.52228906  0.64816014    -0.12900
C1293       C  0.73225368  0.56517616  0.66678386     0.00700
C1294       C  0.68937906  0.55823554  0.68543473    -0.11500
C1295       C  0.64009159  0.50918228  0.68579121     0.03200
C1296       C  0.63346469  0.96644785  0.66680915    -0.10900
H1297       H  0.75787099  0.52790974  0.63303991     0.08800
H1298       H  0.69501522  0.59079553  0.70054330     0.06300
H1299       H  0.59559011  0.92861898  0.66681315     0.06200
Fe1300     Fe  0.66711118  0.76509140  0.58328050     1.65800
Fe1301     Fe  0.59875856  0.83337410  0.58327467     1.73200
Fe1302     Fe  0.73550334  0.90175893  0.58357433     1.54400
O1303       O  0.77377537  0.87336277  0.61317667    -0.81600
O1304       O  0.62037183  0.88216031  0.54560631    -0.79900
O1305       O  0.71562039  0.78617713  0.62107021    -0.84100
O1306       O  0.73395259  0.79350108  0.55380521    -0.79000
O1307       O  0.71381417  0.92870411  0.62131958    -0.80700
O1308       O  0.56040160  0.76678335  0.55362583    -0.83500
C1309       C  0.76479858  0.83814761  0.54038173     0.97300
C1310       C  0.75987330  0.82869688  0.62659384     1.04700
O1311       O  0.66713029  0.83340648  0.58337698    -1.12500
O1312       O  0.57126004  0.78457334  0.62092651    -0.74900
O1313       O  0.60024428  0.72650529  0.61274410    -0.78400
O1314       O  0.76311964  0.88066956  0.54586368    -0.79100
C1315       C  0.56949016  0.74029944  0.62627303     0.96200
O1316       O  0.61866223  0.73803117  0.54547220    -0.77000
O1317       O  0.62682358  0.89997414  0.61291098    -0.82200
C1318       C  0.66292256  0.92653598  0.54036458     0.98800
C1319       C  0.67129825  0.93054097  0.62657947     1.04700
O1320       O  0.70742056  0.94037800  0.55399569    -0.77900
C1321       C  0.57435996  0.73619658  0.54006673     1.03000
C1322       C  0.96458067  0.65750065  0.98079855     0.03200
C1323       C  0.50071974  0.70022826  0.49979125    -0.12900
C1324       C  0.53687198  0.69370994  0.51877463     0.00700
C1325       C  0.53674282  0.64451969  0.51840042    -0.11500
C1326       C  0.50078911  0.60159124  0.49979001     0.03200
C1327       C  0.96476735  0.60844280  0.98117497    -0.10900
H1328       H  0.50069000  0.73802345  0.49981197     0.08800
H1329       H  0.56370464  0.63896503  0.53350461     0.06300
H1330       H  0.93776695  0.57583262  0.96610934     0.06200
C1331       C  0.63087164  0.99105248  0.81445278     0.03200
C1332       C  0.66700410  0.53375190  0.83345905    -0.12900
C1333       C  0.70308953  0.52715769  0.85245808     0.00700
C1334       C  0.70288309  0.97792061  0.85209071    -0.11500
C1335       C  0.66695078  0.93504004  0.83344018     0.03200
C1336       C  0.63101339  0.94198032  0.81481140    -0.10900
H1337       H  0.66704439  0.57158215  0.83346297     0.08800
H1338       H  0.72981717  0.97232628  0.86719652     0.06300
H1339       H  0.60405509  0.90943114  0.79969863     0.06200
C1340       C  0.50974468  0.64032148  0.81415366     0.03200
C1341       C  0.96696440  0.63371420  0.83312209    -0.12900
C1342       C  0.97350799  0.67643127  0.85209300     0.00700
C1343       C  0.52274906  0.72551355  0.85173996    -0.11500
C1344       C  0.56568324  0.73248442  0.83313881     0.03200
C1345       C  0.55883129  0.68960832  0.81452629    -0.10900
H1346       H  0.92912422  0.59585129  0.83313562     0.08800
H1347       H  0.52833824  0.75805511  0.86685046     0.06300
H1348       H  0.59146996  0.69525075  0.79946110     0.06200
Fe1349     Fe  0.76548141  0.66695725  0.91692661     1.65800
Fe1350     Fe  0.83382699  0.59865454  0.91657864     1.73200
Fe1351     Fe  0.90219999  0.73533356  0.91662077     1.54400
O1352       O  0.87378993  0.77374631  0.88712701    -0.81600
O1353       O  0.88262407  0.61988704  0.95423015    -0.79900
O1354       O  0.78652929  0.71571529  0.87924102    -0.84100
O1355       O  0.79386045  0.73360436  0.94652933    -0.79000
O1356       O  0.92924991  0.71392787  0.87879584    -0.80700
O1357       O  0.76718989  0.56006231  0.94619019    -0.83500
C1358       C  0.83852918  0.76438703  0.95995443     0.97300
C1359       C  0.82909744  0.75995671  0.87374781     1.04700
O1360       O  0.83384299  0.66699707  0.91670897    -1.12500
O1361       O  0.78510128  0.57156096  0.87890098    -0.74900
O1362       O  0.72685541  0.60025483  0.88734605    -0.78400
O1363       O  0.88106163  0.76271045  0.95442448    -0.79100
C1364       C  0.74072652  0.56967921  0.87367795     0.96200
O1365       O  0.73856723  0.61832649  0.95465805    -0.77000
O1366       O  0.90043438  0.62690221  0.88695339    -0.82200
C1367       C  0.92694362  0.66242853  0.95959249     0.98800
C1368       C  0.93103712  0.67144939  0.87338478     1.04700
O1369       O  0.94074481  0.70702794  0.94610634    -0.77900
C1370       C  0.73668235  0.57397455  0.95989266     1.03000
Fe1371     Fe  0.50025951  0.93180404  0.75024029     1.65800
Fe1372     Fe  0.56867156  0.56850461  0.74991834     1.73200
Fe1373     Fe  0.93194036  0.00009765  0.74997209     1.54400
O1374       O  0.89350097  0.93324892  0.72048515    -0.81600
O1375       O  0.54739340  0.59605197  0.78757840    -0.79900
O1376       O  0.95155672  0.90415430  0.71254410    -0.84100
O1377       O  0.93357529  0.89349826  0.77982277    -0.79000
O1378       O  0.95330777  0.54857175  0.71216148    -0.80700
O1379       O  0.60721036  0.54044002  0.77955770    -0.83500
C1380       C  0.90286628  0.90740567  0.79328445     0.97300
C1381       C  0.90731411  0.90241959  0.70706928     1.04700
O1382       O  0.50028290  0.50013575  0.75004356    -1.12500
O1383       O  0.59576227  0.54683742  0.71223307    -0.74900
O1384       O  0.56698054  0.95987984  0.72068433    -0.78400
O1385       O  0.90460102  0.95161651  0.78777423    -0.79100
C1386       C  0.59758681  0.50432694  0.70700851     0.96200
O1387       O  0.54888678  0.95346445  0.78797035    -0.77000
O1388       O  0.54042279  0.60682912  0.72026575    -0.82200
C1389       C  0.50483810  0.59777386  0.79294477     0.98800
C1390       C  0.49582740  0.59287984  0.70673869     1.04700
O1391       O  0.96023901  0.56695249  0.77944726    -0.77900
C1392       C  0.59328503  0.99596906  0.79321862     1.03000
loop_ 
_geom_bond_atom_site_label_1 
_geom_bond_atom_site_label_2 
_geom_bond_distance 
_geom_bond_site_symmetry_2 
_ccdc_geom_bond_type 
C1            C2   1.406       .  A
C1         C1050   1.406   1_455  A
C1          C108   1.489       .  S
C2          C177   1.406   1_556  A
C2            H7   1.083       .  S
C3          C176   1.406       .  A
C3         C1048   1.405   1_545  A
C3           C57   1.488       .  S
C4            C5   1.405       .  A
C4         C1047   1.405       .  A
C4            H8   1.083       .  S
C5          C180   1.406       .  A
C5           C30   1.487       .  S
C6         C1045   1.406       .  A
C6          C179   1.406   1_556  A
C6            H9   1.083       .  S
C10          C11   1.406       .  A
C10          C15   1.406       .  A
C10         C117   1.489       .  S
C11          C12   1.406       .  A
C11          H16   1.083       .  S
C12          C13   1.405       .  A
C12         C126   1.487       .  S
C13          C14   1.405       .  A
C13          H17   1.083       .  S
C14          C15   1.406       .  A
C14          C39   1.488       .  S
C15          H18   1.083       .  S
C19          C20   1.406       .  A
C19          C24   1.405       .  A
C19          C66   1.488       .  S
C20          C21   1.406       .  A
C20          H25   1.083       .  S
C21          C22   1.406       .  A
C21          C48   1.489       .  S
C22          C23   1.406       .  A
C22          H26   1.083       .  S
C23          C24   1.405       .  A
C23          C75   1.488       .  S
C24          H27   1.083       .  S
C28          C29   1.408       .  A
C28          C33   1.407       .  A
C28         C140   1.476       .  S
C29          C30   1.399       .  A
C29          H34   1.084       .  S
C30         C205   1.399       .  A
C31          C32   1.408       .  A
C31         C204   1.399       .  A
C31          H35   1.084       .  S
C32         C207   1.407       .  A
C32          C91   1.476       .  S
C33         C206   1.407       .  A
C33          H36   1.083       .  S
C37          C38   1.408       .  A
C37          C42   1.407       .  A
C37         C141   1.477       .  S
C38          C39   1.400       .  A
C38          H43   1.084       .  S
C39          C40   1.398       .  A
C40          C41   1.407       .  A
C40          H44   1.084       .  S
C41          C42   1.407       .  A
C41         C162   1.476       .  S
C42          H45   1.083       .  S
C46          C47   1.408       .  A
C46          C51   1.407       .  A
C46          C92   1.477       .  S
C47          C48   1.399       .  A
C47          H52   1.084       .  S
C48          C49   1.399       .  A
C49          C50   1.408       .  A
C49          H53   1.084       .  S
C50          C51   1.407       .  A
C50         C163   1.477       .  S
C51          H54   1.083       .  S
C55          C56   1.408       .  A
C55         C582   1.407       .  A
C55         C100   1.477       .  S
C56         C579   1.399       .  A
C56          H61   1.084       .  S
C57          C58   1.398       .  A
C57         C578   1.399   1_545  A
C58          C59   1.407       .  A
C58          H62   1.084       .  S
C59          C60   1.407       .  A
C59         C152   1.475       .  S
C60         C577   1.407   1_545  A
C60          H63   1.083       .  S
C64          C69   1.407   1_655  A
C64         C761   1.408       .  A
C64         C172   1.477       .  S
C65          C66   1.399       .  A
C65         C760   1.408       .  A
C65          H70   1.084       .  S
C66          C67   1.399       .  A
C67         C764   1.408       .  A
C67          H71   1.084       .  S
C68          C69   1.407       .  A
C68         C763   1.408   1_455  A
C68          C97   1.476       .  S
C69          H72   1.083       .  S
C73          C78   1.407       .  A
C73         C422   1.408       .  A
C73         C101   1.476       .  S
C74          C75   1.399       .  A
C74         C421   1.408   1_545  A
C74          H79   1.084       .  S
C75          C76   1.398       .  A
C76          C77   1.407       .  A
C76          H80   1.084       .  S
C77         C426   1.407   1_545  A
C77         C168   1.475       .  S
C78         C425   1.407       .  A
C78          H81   1.083       .  S
Fe82         O98   2.035       .  S
Fe82         O88   2.097       .  S
Fe82         O95   2.097       .  S
Fe82         O87   2.035       .  S
Fe82         O93   1.957       .  S
Fe83         O86   2.035       .  S
Fe83         O90   2.098       .  S
Fe83         O94   2.035       .  S
Fe83         O99   2.098       .  S
Fe83         O93   1.958       .  S
Fe84        O102   2.100       .  S
Fe84         O89   2.035       .  S
Fe84         O96   2.035       .  S
Fe84         O85   2.100       .  S
Fe84         O93   1.957       .  S
O85          C92   1.275       .  A
O86         C100   1.265       .  A
O87          C92   1.266       .  A
O88          C91   1.274       .  A
O89         C101   1.265       .  A
O90         C103   1.274       .  A
C91          O96   1.266       .  A
O94          C97   1.266       .  A
O95          C97   1.274       .  A
O98         C103   1.265       .  A
O99         C101   1.274       .  A
C100        O102   1.275       .  A
C103        C106   1.476       .  S
C104        C109   1.409       .  A
C104        C975   1.407       .  A
C104        C149   1.477       .  S
C105        C106   1.407   1_556  A
C105        C974   1.407   1_455  A
C105        H110   1.083       .  S
C106        C107   1.408       .  A
C107        C108   1.399   1_554  A
C107        H111   1.084       .  S
C108        C979   1.400   1_455  A
C109        C978   1.400       .  A
C109        H112   1.084       .  S
C113        C118   1.408       .  A
C113        C462   1.407       .  A
C113        C174   1.477       .  S
C114        C115   1.407       .  A
C114        C461   1.407   1_545  A
C114        H119   1.083       .  S
C115        C464   1.408   1_545  A
C115        C146   1.476       .  S
C116        C117   1.399       .  A
C116        C463   1.408       .  A
C116        H120   1.084       .  S
C117        C118   1.399       .  A
C118        H121   1.084       .  S
C122        C127   1.408       .  A
C122        C819   1.407   1_455  A
C122        C171   1.476       .  S
C123        C124   1.407       .  A
C123        C818   1.407       .  A
C123        H128   1.083       .  S
C124        C821   1.407       .  A
C124        C150   1.476       .  S
C125        C126   1.398       .  A
C125        C820   1.407   1_455  A
C125        H129   1.084       .  S
C126        C127   1.399       .  A
C127        H130   1.084       .  S
Fe131       O147   2.034       .  S
Fe131       O137   2.098       .  S
Fe131       O144   2.099       .  S
Fe131       O136   2.036       .  S
Fe131       O142   1.957       .  S
Fe132       O135   2.035       .  S
Fe132       O139   2.097       .  S
Fe132       O143   2.034       .  S
Fe132       O148   2.097       .  S
Fe132       O142   1.958       .  S
Fe133       O151   2.100       .  S
Fe133       O138   2.035       .  S
Fe133       O145   2.036       .  S
Fe133       O134   2.100       .  S
Fe133       O142   1.956       .  S
O134        C141   1.275       .  A
O135        C149   1.266       .  A
O136        C141   1.266       .  A
O137        C140   1.274       .  A
O138        C150   1.266       .  A
O139        C152   1.274       .  A
C140        O145   1.266       .  A
O143        C146   1.265       .  A
O144        C146   1.275       .  A
O147        C152   1.265       .  A
O148        C150   1.274       .  A
C149        O151   1.275       .  A
Fe153       O169   2.035       .  S
Fe153       O166   2.097       .  S
Fe153       O855   2.097   1_455  S
Fe153       O854   2.035   1_455  S
Fe153       O512   1.958       .  S
Fe154       O157   2.035       .  S
Fe154       O161   2.100       .  S
Fe154       O165   2.034       .  S
Fe154       O170   2.099       .  S
Fe154       O164   1.957       .  S
Fe155       O167   2.035       .  S
Fe155       O156   2.099       .  S
Fe155       O521   2.099       .  S
Fe155       O508   2.035       .  S
Fe155      O1208   1.957       .  S
O156        C163   1.275       .  A
O157        C171   1.266       .  A
O158       Fe849   2.035       .  S
O158        C163   1.266       .  A
O159       Fe849   2.097       .  S
O159        C162   1.274       .  A
O160       Fe503   2.035       .  S
O160        C868   1.265       .  A
O161        C522   1.275   1_545  A
C162        O167   1.266       .  A
O164       Fe501   1.958   1_545  S
O164      Fe1199   1.957   1_455  S
O165        C168   1.265       .  A
O166        C516   1.274       .  A
C168        O514   1.274   1_545  A
O169        C174   1.265       .  A
O170        C172   1.275   1_455  A
C171        O869   1.275   1_455  A
C172        O856   1.265       .  A
O173       Fe503   2.099       .  S
O173        C867   1.275       .  A
C174        O509   1.275       .  A
C175        C176   1.406       .  A
C175       C1224   1.406   1_455  A
C175        C282   1.489       .  S
C176        H181   1.083       .  S
C177       C1222   1.405   1_545  A
C177        C231   1.488       .  S
C178       C1221   1.405       .  A
C178        C179   1.405       .  A
C178        H182   1.083       .  S
C179        C204   1.487       .  S
C180       C1219   1.406       .  A
C180        H183   1.083       .  S
C184        C185   1.406       .  A
C184        C189   1.406       .  A
C184        C291   1.489       .  S
C185        C186   1.406       .  A
C185        H190   1.083       .  S
C186        C187   1.405       .  A
C186        C300   1.487       .  S
C187        C188   1.405       .  A
C187        H191   1.083       .  S
C188        C189   1.406       .  A
C188        C213   1.488       .  S
C189        H192   1.083       .  S
C193        C194   1.406       .  A
C193        C198   1.405       .  A
C193        C240   1.488       .  S
C194        C195   1.406       .  A
C194        H199   1.083       .  S
C195        C196   1.406       .  A
C195        C222   1.489       .  S
C196        C197   1.406       .  A
C196        H200   1.083       .  S
C197        C198   1.405       .  A
C197        C249   1.488       .  S
C198        H201   1.083       .  S
C202        C203   1.408       .  A
C202        C207   1.407   1_556  A
C202        C314   1.476       .  S
C203        C204   1.399   1_556  A
C203        H208   1.084       .  S
C205        C206   1.408       .  A
C205        H209   1.084       .  S
C206        C265   1.476       .  S
C207        H210   1.083       .  S
C211        C212   1.408       .  A
C211        C216   1.407       .  A
C211        C315   1.477       .  S
C212        C213   1.400       .  A
C212        H217   1.084       .  S
C213        C214   1.398       .  A
C214        C215   1.407       .  A
C214        H218   1.084       .  S
C215        C216   1.407       .  A
C215        C336   1.476       .  S
C216        H219   1.083       .  S
C220        C221   1.408       .  A
C220        C225   1.407       .  A
C220        C266   1.477       .  S
C221        C222   1.399       .  A
C221        H226   1.084       .  S
C222        C223   1.399       .  A
C223        C224   1.408       .  A
C223        H227   1.084       .  S
C224        C225   1.407       .  A
C224        C337   1.477       .  S
C225        H228   1.083       .  S
C229        C230   1.408       .  A
C229        C408   1.407       .  A
C229        C274   1.477       .  S
C230        C405   1.399       .  A
C230        H235   1.084       .  S
C231        C404   1.399   1_545  A
C231        C232   1.398   1_554  A
C232        C233   1.407       .  A
C232        H236   1.084       .  S
C233        C234   1.407   1_556  A
C233        C326   1.475       .  S
C234        C403   1.407   1_545  A
C234        H237   1.083       .  S
C238        C935   1.408       .  A
C238        C243   1.407   1_655  A
C238        C346   1.477       .  S
C239        C934   1.408       .  A
C239        C240   1.399       .  A
C239        H244   1.084       .  S
C240        C241   1.399       .  A
C241        C938   1.408       .  A
C241        H245   1.084       .  S
C242        C937   1.408   1_455  A
C242        C243   1.407       .  A
C242        C271   1.476       .  S
C243        H246   1.083       .  S
C247        C596   1.408       .  A
C247        C252   1.407       .  A
C247        C275   1.476       .  S
C248        C595   1.408   1_545  A
C248        C249   1.399       .  A
C248        H253   1.084       .  S
C249        C250   1.398       .  A
C250        C251   1.407       .  A
C250        H254   1.084       .  S
C251        C600   1.407   1_545  A
C251        C342   1.475       .  S
C252        C599   1.407       .  A
C252        H255   1.083       .  S
Fe256       O272   2.035       .  S
Fe256       O262   2.097       .  S
Fe256       O269   2.097       .  S
Fe256       O261   2.035       .  S
Fe256       O267   1.957       .  S
Fe257       O260   2.035       .  S
Fe257       O264   2.098       .  S
Fe257       O268   2.035       .  S
Fe257       O273   2.098       .  S
Fe257       O267   1.958       .  S
Fe258       O276   2.100       .  S
Fe258       O263   2.035       .  S
Fe258       O270   2.035       .  S
Fe258       O259   2.100       .  S
Fe258       O267   1.957       .  S
O259        C266   1.275       .  A
O260        C274   1.265       .  A
O261        C266   1.266       .  A
O262        C265   1.274       .  A
O263        C275   1.265       .  A
O264        C277   1.274       .  A
C265        O270   1.266       .  A
O268        C271   1.266       .  A
O269        C271   1.274       .  A
O272        C277   1.265       .  A
O273        C275   1.274       .  A
C274        O276   1.275       .  A
C277        C280   1.476       .  S
C278        C801   1.407       .  A
C278        C283   1.409       .  A
C278        C323   1.477       .  S
C279        C800   1.407   1_455  A
C279        C280   1.407       .  A
C279        H284   1.083       .  S
C280        C281   1.408       .  A
C281        C282   1.399       .  A
C281        H285   1.084       .  S
C282        C805   1.400   1_455  A
C283        C804   1.400       .  A
C283        H286   1.084       .  S
C287        C636   1.407       .  A
C287        C292   1.408       .  A
C287        C348   1.477       .  S
C288        C635   1.407   1_545  A
C288        C289   1.407       .  A
C288        H293   1.083       .  S
C289        C638   1.408   1_545  A
C289        C320   1.476       .  S
C290        C637   1.408       .  A
C290        C291   1.399       .  A
C290        H294   1.084       .  S
C291        C292   1.399       .  A
C292        H295   1.084       .  S
C296        C993   1.407   1_455  A
C296        C301   1.408       .  A
C296        C345   1.476       .  S
C297        C992   1.407       .  A
C297        C298   1.407       .  A
C297        H302   1.083       .  S
C298        C995   1.407       .  A
C298        C324   1.476       .  S
C299        C994   1.407   1_455  A
C299        C300   1.398       .  A
C299        H303   1.084       .  S
C300        C301   1.399       .  A
C301        H304   1.084       .  S
Fe305       O321   2.034       .  S
Fe305       O311   2.098       .  S
Fe305       O318   2.099       .  S
Fe305       O310   2.036       .  S
Fe305       O316   1.957       .  S
Fe306       O309   2.035       .  S
Fe306       O313   2.097       .  S
Fe306       O317   2.034       .  S
Fe306       O322   2.097       .  S
Fe306       O316   1.958       .  S
Fe307       O325   2.100       .  S
Fe307       O312   2.035       .  S
Fe307       O319   2.036       .  S
Fe307       O308   2.100       .  S
Fe307       O316   1.956       .  S
O308        C315   1.275       .  A
O309        C323   1.266       .  A
O310        C315   1.266       .  A
O311        C314   1.274       .  A
O312        C324   1.265       .  A
O313        C326   1.274       .  A
C314        O319   1.266       .  A
O317        C320   1.265       .  A
O318        C320   1.275       .  A
O321        C326   1.265       .  A
O322        C324   1.274       .  A
C323        O325   1.275       .  A
Fe327       O343   2.035       .  S
Fe327      O1029   2.097   1_455  S
Fe327       O340   2.097       .  S
Fe327      O1028   2.035   1_455  S
Fe327       O686   1.958       .  S
Fe328       O331   2.035       .  S
Fe328       O335   2.100       .  S
Fe328       O339   2.034       .  S
Fe328       O344   2.099       .  S
Fe328       O338   1.957       .  S
Fe329       O695   2.099       .  S
Fe329       O682   2.035       .  S
Fe329       O341   2.035       .  S
Fe329       O330   2.099       .  S
Fe329      O1382   1.957       .  S
O330        C337   1.275       .  A
O331        C345   1.266       .  A
O332      Fe1023   2.035       .  S
O332        C337   1.266       .  A
O333      Fe1023   2.097       .  S
O333        C336   1.274       .  A
O334       Fe677   2.035       .  S
O334       C1042   1.265       .  A
O335        C696   1.275   1_545  A
C336        O341   1.266       .  A
O338       Fe675   1.958   1_545  S
O338      Fe1373   1.957   1_455  S
O339        C342   1.265       .  A
O340        C690   1.274       .  A
C342        O688   1.274   1_545  A
O343        C348   1.265       .  A
O344        C346   1.275   1_455  A
C345       O1043   1.275   1_455  A
C346       O1030   1.265       .  A
O347       Fe677   2.099       .  S
O347       C1041   1.275       .  A
C348        O683   1.275       .  A
C349        C350   1.406       .  A
C349        C702   1.406   1_455  A
C349        C456   1.489       .  S
C350        C525   1.406   1_556  A
C350        H355   1.083       .  S
C351        C524   1.406       .  A
C351        C700   1.405       .  A
C351        C405   1.488       .  S
C352        C699   1.405   1_565  A
C352        C353   1.405       .  A
C352        H356   1.083       .  S
C353        C528   1.406   1_565  A
C353        C378   1.487       .  S
C354        C697   1.406       .  A
C354        C527   1.406   1_546  A
C354        H357   1.083       .  S
C358        C359   1.406       .  A
C358        C363   1.406       .  A
C358        C465   1.489       .  S
C359        C360   1.406       .  A
C359        H364   1.083       .  S
C360        C361   1.405       .  A
C360        C474   1.487       .  S
C361        C362   1.405       .  A
C361        H365   1.083       .  S
C362        C363   1.406       .  A
C362        C387   1.488       .  S
C363        H366   1.083       .  S
C367        C368   1.406       .  A
C367        C372   1.405       .  A
C367        C414   1.488       .  S
C368        C369   1.406       .  A
C368        H373   1.083       .  S
C369        C370   1.406       .  A
C369        C396   1.489       .  S
C370        C371   1.406       .  A
C370        H374   1.083       .  S
C371        C372   1.405       .  A
C371        C423   1.488       .  S
C372        H375   1.083       .  S
C376        C377   1.408       .  A
C376        C381   1.407       .  A
C376        C488   1.476       .  S
C377        C378   1.399       .  A
C377        H382   1.084       .  S
C378        C553   1.399       .  A
C379        C552   1.399       .  A
C379        C380   1.408       .  A
C379        H383   1.084       .  S
C380        C555   1.407       .  A
C380        C439   1.476       .  S
C381        C554   1.407       .  A
C381        H384   1.083       .  S
C385        C386   1.408       .  A
C385        C390   1.407       .  A
C385        C489   1.477       .  S
C386        C387   1.400       .  A
C386        H391   1.084       .  S
C387        C388   1.398       .  A
C388        C389   1.407       .  A
C388        H392   1.084       .  S
C389        C390   1.407       .  A
C389        C510   1.476       .  S
C390        H393   1.083       .  S
C394        C395   1.408       .  A
C394        C399   1.407       .  A
C394        C440   1.477       .  S
C395        C396   1.399       .  A
C395        H400   1.084       .  S
C396        C397   1.399       .  A
C397        C398   1.408       .  A
C397        H401   1.084       .  S
C398        C399   1.407       .  A
C398        C511   1.477       .  S
C399        H402   1.083       .  S
C403        C404   1.408       .  A
C403        C448   1.477       .  S
C404        H409   1.084       .  S
C405        C406   1.398       .  A
C406        C407   1.407       .  A
C406        H410   1.084       .  S
C407        C408   1.407       .  A
C407        C500   1.475       .  S
C408        H411   1.083       .  S
C412       C1109   1.408       .  A
C412        C417   1.407   1_655  A
C412        C520   1.477       .  S
C413       C1108   1.408       .  A
C413        C414   1.399       .  A
C413        H418   1.084       .  S
C414        C415   1.399       .  A
C415       C1112   1.408       .  A
C415        H419   1.084       .  S
C416       C1111   1.408   1_455  A
C416        C417   1.407       .  A
C416        C445   1.476       .  S
C417        H420   1.083       .  S
C421        C426   1.407       .  A
C421        C449   1.476       .  S
C422        C423   1.399       .  A
C422        H427   1.084       .  S
C423        C424   1.398       .  A
C424        C425   1.407       .  A
C424        H428   1.084       .  S
C425        C516   1.475       .  S
C426        H429   1.083       .  S
Fe430       O446   2.035       .  S
Fe430       O436   2.097       .  S
Fe430       O443   2.097       .  S
Fe430       O435   2.035       .  S
Fe430       O441   1.957       .  S
Fe431       O434   2.035       .  S
Fe431       O438   2.098       .  S
Fe431       O442   2.035       .  S
Fe431       O447   2.098       .  S
Fe431       O441   1.958       .  S
Fe432       O450   2.100       .  S
Fe432       O437   2.035       .  S
Fe432       O444   2.035       .  S
Fe432       O433   2.100       .  S
Fe432       O441   1.957       .  S
O433        C440   1.275       .  A
O434        C448   1.265       .  A
O435        C440   1.266       .  A
O436        C439   1.274       .  A
O437        C449   1.265       .  A
O438        C451   1.274       .  A
C439        O444   1.266       .  A
O442        C445   1.266       .  A
O443        C445   1.274       .  A
O446        C451   1.265       .  A
O447        C449   1.274       .  A
C448        O450   1.275       .  A
C451        C454   1.476       .  S
C452       C1323   1.407       .  A
C452        C457   1.409       .  A
C452        C497   1.477       .  S
C453       C1322   1.407   1_455  A
C453        C454   1.407   1_556  A
C453        H458   1.083       .  S
C454        C455   1.408       .  A
C455        C456   1.399   1_554  A
C455        H459   1.084       .  S
C456       C1327   1.400   1_455  A
C457       C1326   1.400       .  A
C457        H460   1.084       .  S
C461        C466   1.408       .  A
C461        C522   1.477       .  S
C462        C463   1.407       .  A
C462        H467   1.083       .  S
C463        C494   1.476       .  S
C464        C465   1.399       .  A
C464        H468   1.084       .  S
C465        C466   1.399       .  A
C466        H469   1.084       .  S
C470       C1167   1.407   1_455  A
C470        C475   1.408       .  A
C470        C519   1.476       .  S
C471       C1166   1.407       .  A
C471        C472   1.407       .  A
C471        H476   1.083       .  S
C472       C1169   1.407       .  A
C472        C498   1.476       .  S
C473       C1168   1.407   1_455  A
C473        C474   1.398       .  A
C473        H477   1.084       .  S
C474        C475   1.399       .  A
C475        H478   1.084       .  S
Fe479       O495   2.034       .  S
Fe479       O485   2.098       .  S
Fe479       O492   2.099       .  S
Fe479       O484   2.036       .  S
Fe479       O490   1.957       .  S
Fe480       O483   2.035       .  S
Fe480       O487   2.097       .  S
Fe480       O491   2.034       .  S
Fe480       O496   2.097       .  S
Fe480       O490   1.958       .  S
Fe481       O499   2.100       .  S
Fe481       O486   2.035       .  S
Fe481       O493   2.036       .  S
Fe481       O482   2.100       .  S
Fe481       O490   1.956       .  S
O482        C489   1.275       .  A
O483        C497   1.266       .  A
O484        C489   1.266       .  A
O485        C488   1.274       .  A
O486        C498   1.266       .  A
O487        C500   1.274       .  A
C488        O493   1.266       .  A
O491        C494   1.265       .  A
O492        C494   1.275       .  A
O495        C500   1.265       .  A
O496        C498   1.274       .  A
C497        O499   1.275       .  A
Fe501       O517   2.035       .  S
Fe501      O1203   2.097   1_455  S
Fe501       O514   2.097       .  S
Fe501      O1202   2.035   1_455  S
Fe502       O505   2.035       .  S
Fe502       O509   2.100       .  S
Fe502       O513   2.034       .  S
Fe502       O518   2.099       .  S
Fe502       O512   1.957       .  S
Fe503       O515   2.035   1_545  S
Fe503       O504   2.099   1_545  S
Fe503       O860   1.957       .  S
O504        C511   1.275       .  A
O505        C519   1.266       .  A
O506      Fe1197   2.035       .  S
O506        C511   1.266       .  A
O507      Fe1197   2.097       .  S
O507        C510   1.274       .  A
O508       C1216   1.265       .  A
C510        O515   1.266       .  A
O512       Fe851   1.957   1_455  S
O513        C516   1.265       .  A
O517        C522   1.265       .  A
O518        C520   1.275   1_455  A
C519       O1217   1.275   1_455  A
C520       O1204   1.265       .  A
O521       C1215   1.275       .  A
C523        C524   1.406       .  A
C523        C876   1.406   1_455  A
C523        C630   1.489       .  S
C524        H529   1.083       .  S
C525        C874   1.405       .  A
C525        C579   1.488       .  S
C526        C873   1.405   1_565  A
C526        C527   1.405       .  A
C526        H530   1.083       .  S
C527        C552   1.487       .  S
C528        C871   1.406       .  A
C528        H531   1.083       .  S
C532        C533   1.406       .  A
C532        C537   1.406       .  A
C532        C639   1.489       .  S
C533        C534   1.406       .  A
C533        H538   1.083       .  S
C534        C535   1.405       .  A
C534        C648   1.487       .  S
C535        C536   1.405       .  A
C535        H539   1.083       .  S
C536        C537   1.406       .  A
C536        C561   1.488       .  S
C537        H540   1.083       .  S
C541        C542   1.406       .  A
C541        C546   1.405       .  A
C541        C588   1.488       .  S
C542        C543   1.406       .  A
C542        H547   1.083       .  S
C543        C544   1.406       .  A
C543        C570   1.489       .  S
C544        C545   1.406       .  A
C544        H548   1.083       .  S
C545        C546   1.405       .  A
C545        C597   1.488       .  S
C546        H549   1.083       .  S
C550        C551   1.408       .  A
C550        C555   1.407   1_556  A
C550        C662   1.476       .  S
C551        C552   1.399   1_556  A
C551        H556   1.084       .  S
C553        C554   1.408       .  A
C553        H557   1.084       .  S
C554        C613   1.476       .  S
C555        H558   1.083       .  S
C559        C560   1.408       .  A
C559        C564   1.407       .  A
C559        C663   1.477       .  S
C560        C561   1.400       .  A
C560        H565   1.084       .  S
C561        C562   1.398       .  A
C562        C563   1.407       .  A
C562        H566   1.084       .  S
C563        C564   1.407       .  A
C563        C684   1.476       .  S
C564        H567   1.083       .  S
C568        C569   1.408       .  A
C568        C573   1.407       .  A
C568        C614   1.477       .  S
C569        C570   1.399       .  A
C569        H574   1.084       .  S
C570        C571   1.399       .  A
C571        C572   1.408       .  A
C571        H575   1.084       .  S
C572        C573   1.407       .  A
C572        C685   1.477       .  S
C573        H576   1.083       .  S
C577        C578   1.408       .  A
C577        C622   1.477       .  S
C578        H583   1.084       .  S
C579        C580   1.398   1_554  A
C580        C581   1.407       .  A
C580        H584   1.084       .  S
C581        C582   1.407   1_556  A
C581        C674   1.475       .  S
C582        H585   1.083       .  S
C586       C1283   1.408       .  A
C586        C591   1.407   1_655  A
C586        C694   1.477       .  S
C587       C1282   1.408       .  A
C587        C588   1.399       .  A
C587        H592   1.084       .  S
C588        C589   1.399       .  A
C589       C1286   1.408       .  A
C589        H593   1.084       .  S
C590       C1285   1.408   1_455  A
C590        C591   1.407       .  A
C590        C619   1.476       .  S
C591        H594   1.083       .  S
C595        C600   1.407       .  A
C595        C623   1.476       .  S
C596        C597   1.399       .  A
C596        H601   1.084       .  S
C597        C598   1.398       .  A
C598        C599   1.407       .  A
C598        H602   1.084       .  S
C599        C690   1.475       .  S
C600        H603   1.083       .  S
Fe604       O620   2.035       .  S
Fe604       O610   2.097       .  S
Fe604       O617   2.097       .  S
Fe604       O609   2.035       .  S
Fe604       O615   1.957       .  S
Fe605       O608   2.035       .  S
Fe605       O612   2.098       .  S
Fe605       O616   2.035       .  S
Fe605       O621   2.098       .  S
Fe605       O615   1.958       .  S
Fe606       O624   2.100       .  S
Fe606       O611   2.035       .  S
Fe606       O618   2.035       .  S
Fe606       O607   2.100       .  S
Fe606       O615   1.957       .  S
O607        C614   1.275       .  A
O608        C622   1.265       .  A
O609        C614   1.266       .  A
O610        C613   1.274       .  A
O611        C623   1.265       .  A
O612        C625   1.274       .  A
C613        O618   1.266       .  A
O616        C619   1.266       .  A
O617        C619   1.274       .  A
O620        C625   1.265       .  A
O621        C623   1.274       .  A
C622        O624   1.275       .  A
C625        C628   1.476       .  S
C626       C1149   1.407       .  A
C626        C631   1.409       .  A
C626        C671   1.477       .  S
C627       C1148   1.407   1_455  A
C627        C628   1.407       .  A
C627        H632   1.083       .  S
C628        C629   1.408       .  A
C629        C630   1.399       .  A
C629        H633   1.084       .  S
C630       C1153   1.400   1_455  A
C631       C1152   1.400       .  A
C631        H634   1.084       .  S
C635        C640   1.408       .  A
C635        C696   1.477       .  S
C636        C637   1.407       .  A
C636        H641   1.083       .  S
C637        C668   1.476       .  S
C638        C639   1.399       .  A
C638        H642   1.084       .  S
C639        C640   1.399       .  A
C640        H643   1.084       .  S
C644       C1341   1.407   1_455  A
C644        C649   1.408       .  A
C644        C693   1.476       .  S
C645       C1340   1.407       .  A
C645        C646   1.407       .  A
C645        H650   1.083       .  S
C646       C1343   1.407       .  A
C646        C672   1.476       .  S
C647       C1342   1.407   1_455  A
C647        C648   1.398       .  A
C647        H651   1.084       .  S
C648        C649   1.399       .  A
C649        H652   1.084       .  S
Fe653       O669   2.034       .  S
Fe653       O659   2.098       .  S
Fe653       O666   2.099       .  S
Fe653       O658   2.036       .  S
Fe653       O664   1.957       .  S
Fe654       O657   2.035       .  S
Fe654       O661   2.097       .  S
Fe654       O665   2.034       .  S
Fe654       O670   2.097       .  S
Fe654       O664   1.958       .  S
Fe655       O673   2.100       .  S
Fe655       O660   2.035       .  S
Fe655       O667   2.036       .  S
Fe655       O656   2.100       .  S
Fe655       O664   1.956       .  S
O656        C663   1.275       .  A
O657        C671   1.266       .  A
O658        C663   1.266       .  A
O659        C662   1.274       .  A
O660        C672   1.266       .  A
O661        C674   1.274       .  A
C662        O667   1.266       .  A
O665        C668   1.265       .  A
O666        C668   1.275       .  A
O669        C674   1.265       .  A
O670        C672   1.274       .  A
C671        O673   1.275       .  A
Fe675       O691   2.035       .  S
Fe675      O1377   2.097   1_455  S
Fe675       O688   2.097       .  S
Fe675      O1376   2.035   1_455  S
Fe676       O679   2.035       .  S
Fe676       O683   2.100       .  S
Fe676       O687   2.034       .  S
Fe676       O692   2.099       .  S
Fe676       O686   1.957       .  S
Fe677       O689   2.035   1_545  S
Fe677       O678   2.099   1_545  S
Fe677      O1034   1.957       .  S
O678        C685   1.275       .  A
O679        C693   1.266       .  A
O680      Fe1371   2.035       .  S
O680        C685   1.266       .  A
O681      Fe1371   2.097       .  S
O681        C684   1.274       .  A
O682       C1390   1.265       .  A
C684        O689   1.266       .  A
O686      Fe1025   1.957   1_455  S
O687        C690   1.265       .  A
O691        C696   1.265       .  A
O692        C694   1.275   1_455  A
C693       O1391   1.275   1_455  A
C694       O1378   1.265       .  A
O695       C1389   1.275       .  A
C697        C698   1.406       .  A
C697        C804   1.489       .  S
C698        C873   1.406   1_556  A
C698        H703   1.083       .  S
C699        C872   1.406       .  A
C699        C753   1.488       .  S
C700        C701   1.405   1_455  A
C700        H704   1.083       .  S
C701        C876   1.406       .  A
C701        C726   1.487       .  S
C702        C875   1.406   1_556  A
C702        H705   1.083       .  S
C706        C707   1.406       .  A
C706        C711   1.406       .  A
C706        C813   1.489       .  S
C707        C708   1.406       .  A
C707        H712   1.083       .  S
C708        C709   1.405       .  A
C708        C822   1.487       .  S
C709        C710   1.405       .  A
C709        H713   1.083       .  S
C710        C711   1.406       .  A
C710        C735   1.488       .  S
C711        H714   1.083       .  S
C715        C716   1.406       .  A
C715        C720   1.405       .  A
C715        C762   1.488       .  S
C716        C717   1.406       .  A
C716        H721   1.083       .  S
C717        C718   1.406       .  A
C717        C744   1.489       .  S
C718        C719   1.406       .  A
C718        H722   1.083       .  S
C719        C720   1.405       .  A
C719        C771   1.488       .  S
C720        H723   1.083       .  S
C724        C725   1.408       .  A
C724        C729   1.407       .  A
C724        C836   1.476       .  S
C725        C726   1.399       .  A
C725        H730   1.084       .  S
C726        C901   1.399       .  A
C727        C900   1.399       .  A
C727        C728   1.408       .  A
C727        H731   1.084       .  S
C728        C903   1.407       .  A
C728        C787   1.476       .  S
C729        C902   1.407       .  A
C729        H732   1.083       .  S
C733        C734   1.408       .  A
C733        C738   1.407       .  A
C733        C837   1.477       .  S
C734        C735   1.400       .  A
C734        H739   1.084       .  S
C735        C736   1.398       .  A
C736        C737   1.407       .  A
C736        H740   1.084       .  S
C737        C738   1.407       .  A
C737        C858   1.476       .  S
C738        H741   1.083       .  S
C742        C743   1.408       .  A
C742        C747   1.407       .  A
C742        C788   1.477       .  S
C743        C744   1.399       .  A
C743        H748   1.084       .  S
C744        C745   1.399       .  A
C745        C746   1.408       .  A
C745        H749   1.084       .  S
C746        C747   1.407       .  A
C746        C859   1.477       .  S
C747        H750   1.083       .  S
C751        C752   1.408       .  A
C751       C1278   1.407       .  A
C751        C796   1.477       .  S
C752       C1275   1.399       .  A
C752        H757   1.084       .  S
C753       C1274   1.399   1_545  A
C753        C754   1.398       .  A
C754        C755   1.407       .  A
C754        H758   1.084       .  S
C755        C756   1.407       .  A
C755        C848   1.475       .  S
C756       C1273   1.407   1_545  A
C756        H759   1.083       .  S
C760        C765   1.407       .  A
C760        C868   1.477       .  S
C761        C762   1.399       .  A
C761        H766   1.084       .  S
C762        C763   1.399       .  A
C763        H767   1.084       .  S
C764        C765   1.407       .  A
C764        C793   1.476       .  S
C765        H768   1.083       .  S
C769       C1118   1.408       .  A
C769        C774   1.407       .  A
C769        C797   1.476       .  S
C770       C1117   1.408   1_545  A
C770        C771   1.399       .  A
C770        H775   1.084       .  S
C771        C772   1.398       .  A
C772        C773   1.407       .  A
C772        H776   1.084       .  S
C773       C1122   1.407   1_545  A
C773        C864   1.475       .  S
C774       C1121   1.407       .  A
C774        H777   1.083       .  S
Fe778       O794   2.035       .  S
Fe778       O784   2.097       .  S
Fe778       O791   2.097       .  S
Fe778       O783   2.035       .  S
Fe778       O789   1.957       .  S
Fe779       O782   2.035       .  S
Fe779       O786   2.098       .  S
Fe779       O790   2.035       .  S
Fe779       O795   2.098       .  S
Fe779       O789   1.958       .  S
Fe780       O798   2.100       .  S
Fe780       O785   2.035       .  S
Fe780       O792   2.035       .  S
Fe780       O781   2.100       .  S
Fe780       O789   1.957       .  S
O781        C788   1.275       .  A
O782        C796   1.265       .  A
O783        C788   1.266       .  A
O784        C787   1.274       .  A
O785        C797   1.265       .  A
O786        C799   1.274       .  A
C787        O792   1.266       .  A
O790        C793   1.266       .  A
O791        C793   1.274       .  A
O794        C799   1.265       .  A
O795        C797   1.274       .  A
C796        O798   1.275       .  A
C799        C802   1.476       .  S
C800        C805   1.409       .  A
C800        C845   1.477       .  S
C801        C802   1.407   1_556  A
C801        H806   1.083       .  S
C802        C803   1.408       .  A
C803        C804   1.399   1_554  A
C803        H807   1.084       .  S
C805        H808   1.084       .  S
C809       C1158   1.407       .  A
C809        C814   1.408       .  A
C809        C870   1.477       .  S
C810       C1157   1.407   1_545  A
C810        C811   1.407       .  A
C810        H815   1.083       .  S
C811       C1160   1.408   1_545  A
C811        C842   1.476       .  S
C812       C1159   1.408       .  A
C812        C813   1.399       .  A
C812        H816   1.084       .  S
C813        C814   1.399       .  A
C814        H817   1.084       .  S
C818        C823   1.408       .  A
C818        C867   1.476       .  S
C819        C820   1.407       .  A
C819        H824   1.083       .  S
C820        C846   1.476       .  S
C821        C822   1.398       .  A
C821        H825   1.084       .  S
C822        C823   1.399       .  A
C823        H826   1.084       .  S
Fe827       O843   2.034       .  S
Fe827       O833   2.098       .  S
Fe827       O840   2.099       .  S
Fe827       O832   2.036       .  S
Fe827       O838   1.957       .  S
Fe828       O831   2.035       .  S
Fe828       O835   2.097       .  S
Fe828       O839   2.034       .  S
Fe828       O844   2.097       .  S
Fe828       O838   1.958       .  S
Fe829       O847   2.100       .  S
Fe829       O834   2.035       .  S
Fe829       O841   2.036       .  S
Fe829       O830   2.100       .  S
Fe829       O838   1.956       .  S
O830        C837   1.275       .  A
O831        C845   1.266       .  A
O832        C837   1.266       .  A
O833        C836   1.274       .  A
O834        C846   1.266       .  A
O835        C848   1.274       .  A
C836        O841   1.266       .  A
O839        C842   1.265       .  A
O840        C842   1.275       .  A
O843        C848   1.265       .  A
O844        C846   1.274       .  A
C845        O847   1.275       .  A
Fe849       O865   2.035       .  S
Fe849       O862   2.097       .  S
Fe849      O1208   1.958       .  S
Fe850       O853   2.035       .  S
Fe850       O857   2.100       .  S
Fe850       O861   2.034       .  S
Fe850       O866   2.099       .  S
Fe850       O860   1.957       .  S
Fe851      O1217   2.099       .  S
Fe851      O1204   2.035       .  S
Fe851       O863   2.035       .  S
Fe851       O852   2.099       .  S
O852        C859   1.275       .  A
O853        C867   1.266       .  A
O854        C859   1.266       .  A
O855        C858   1.274       .  A
O856      Fe1199   2.035       .  S
O857       C1218   1.275   1_545  A
C858        O863   1.266       .  A
O860      Fe1197   1.958   1_545  S
O861        C864   1.265       .  A
O862       C1212   1.274       .  A
C864       O1210   1.274   1_545  A
O865        C870   1.265       .  A
O866        C868   1.275       .  A
O869      Fe1199   2.099       .  S
C870       O1205   1.275       .  A
C871        C872   1.406       .  A
C871        C978   1.489       .  S
C872        H877   1.083       .  S
C873        C927   1.488       .  S
C874        C875   1.405   1_455  A
C874        H878   1.083       .  S
C875        C900   1.487       .  S
C876        H879   1.083       .  S
C880        C881   1.406       .  A
C880        C885   1.406       .  A
C880        C987   1.489       .  S
C881        C882   1.406       .  A
C881        H886   1.083       .  S
C882        C883   1.405       .  A
C882        C996   1.487       .  S
C883        C884   1.405       .  A
C883        H887   1.083       .  S
C884        C885   1.406       .  A
C884        C909   1.488       .  S
C885        H888   1.083       .  S
C889        C890   1.406       .  A
C889        C894   1.405       .  A
C889        C936   1.488       .  S
C890        C891   1.406       .  A
C890        H895   1.083       .  S
C891        C892   1.406       .  A
C891        C918   1.489       .  S
C892        C893   1.406       .  A
C892        H896   1.083       .  S
C893        C894   1.405       .  A
C893        C945   1.488       .  S
C894        H897   1.083       .  S
C898        C899   1.408       .  A
C898        C903   1.407   1_556  A
C898       C1010   1.476       .  S
C899        C900   1.399   1_556  A
C899        H904   1.084       .  S
C901        C902   1.408       .  A
C901        H905   1.084       .  S
C902        C961   1.476       .  S
C903        H906   1.083       .  S
C907        C908   1.408       .  A
C907        C912   1.407       .  A
C907       C1011   1.477       .  S
C908        C909   1.400       .  A
C908        H913   1.084       .  S
C909        C910   1.398       .  A
C910        C911   1.407       .  A
C910        H914   1.084       .  S
C911        C912   1.407       .  A
C911       C1032   1.476       .  S
C912        H915   1.083       .  S
C916        C917   1.408       .  A
C916        C921   1.407       .  A
C916        C962   1.477       .  S
C917        C918   1.399       .  A
C917        H922   1.084       .  S
C918        C919   1.399       .  A
C919        C920   1.408       .  A
C919        H923   1.084       .  S
C920        C921   1.407       .  A
C920       C1033   1.477       .  S
C921        H924   1.083       .  S
C925        C926   1.408       .  A
C925       C1104   1.407       .  A
C925        C970   1.477       .  S
C926       C1101   1.399       .  A
C926        H931   1.084       .  S
C927       C1100   1.399   1_545  A
C927        C928   1.398   1_554  A
C928        C929   1.407       .  A
C928        H932   1.084       .  S
C929        C930   1.407   1_556  A
C929       C1022   1.475       .  S
C930       C1099   1.407   1_545  A
C930        H933   1.083       .  S
C934        C939   1.407       .  A
C934       C1042   1.477       .  S
C935        C936   1.399       .  A
C935        H940   1.084       .  S
C936        C937   1.399       .  A
C937        H941   1.084       .  S
C938        C939   1.407       .  A
C938        C967   1.476       .  S
C939        H942   1.083       .  S
C943       C1292   1.408       .  A
C943        C948   1.407       .  A
C943        C971   1.476       .  S
C944       C1291   1.408   1_545  A
C944        C945   1.399       .  A
C944        H949   1.084       .  S
C945        C946   1.398       .  A
C946        C947   1.407       .  A
C946        H950   1.084       .  S
C947       C1296   1.407   1_545  A
C947       C1038   1.475       .  S
C948       C1295   1.407       .  A
C948        H951   1.083       .  S
Fe952       O968   2.035       .  S
Fe952       O958   2.097       .  S
Fe952       O965   2.097       .  S
Fe952       O957   2.035       .  S
Fe952       O963   1.957       .  S
Fe953       O956   2.035       .  S
Fe953       O960   2.098       .  S
Fe953       O964   2.035       .  S
Fe953       O969   2.098       .  S
Fe953       O963   1.958       .  S
Fe954       O972   2.100       .  S
Fe954       O959   2.035       .  S
Fe954       O966   2.035       .  S
Fe954       O955   2.100       .  S
Fe954       O963   1.957       .  S
O955        C962   1.275       .  A
O956        C970   1.265       .  A
O957        C962   1.266       .  A
O958        C961   1.274       .  A
O959        C971   1.265       .  A
O960        C973   1.274       .  A
C961        O966   1.266       .  A
O964        C967   1.266       .  A
O965        C967   1.274       .  A
O968        C973   1.265       .  A
O969        C971   1.274       .  A
C970        O972   1.275       .  A
C973        C976   1.476       .  S
C974        C979   1.409       .  A
C974       C1019   1.477       .  S
C975        C976   1.407       .  A
C975        H980   1.083       .  S
C976        C977   1.408       .  A
C977        C978   1.399       .  A
C977        H981   1.084       .  S
C979        H982   1.084       .  S
C983       C1332   1.407       .  A
C983        C988   1.408       .  A
C983       C1044   1.477       .  S
C984       C1331   1.407   1_545  A
C984        C985   1.407       .  A
C984        H989   1.083       .  S
C985       C1334   1.408   1_545  A
C985       C1016   1.476       .  S
C986       C1333   1.408       .  A
C986        C987   1.399       .  A
C986        H990   1.084       .  S
C987        C988   1.399       .  A
C988        H991   1.084       .  S
C992        C997   1.408       .  A
C992       C1041   1.476       .  S
C993        C994   1.407       .  A
C993        H998   1.083       .  S
C994       C1020   1.476       .  S
C995        C996   1.398       .  A
C995        H999   1.084       .  S
C996        C997   1.399       .  A
C997       H1000   1.084       .  S
Fe1001     O1017   2.034       .  S
Fe1001     O1007   2.098       .  S
Fe1001     O1014   2.099       .  S
Fe1001     O1006   2.036       .  S
Fe1001     O1012   1.957       .  S
Fe1002     O1005   2.035       .  S
Fe1002     O1009   2.097       .  S
Fe1002     O1013   2.034       .  S
Fe1002     O1018   2.097       .  S
Fe1002     O1012   1.958       .  S
Fe1003     O1021   2.100       .  S
Fe1003     O1008   2.035       .  S
Fe1003     O1015   2.036       .  S
Fe1003     O1004   2.100       .  S
Fe1003     O1012   1.956       .  S
O1004      C1011   1.275       .  A
O1005      C1019   1.266       .  A
O1006      C1011   1.266       .  A
O1007      C1010   1.274       .  A
O1008      C1020   1.266       .  A
O1009      C1022   1.274       .  A
C1010      O1015   1.266       .  A
O1013      C1016   1.265       .  A
O1014      C1016   1.275       .  A
O1017      C1022   1.265       .  A
O1018      C1020   1.274       .  A
C1019      O1021   1.275       .  A
Fe1023     O1039   2.035       .  S
Fe1023     O1036   2.097       .  S
Fe1023     O1382   1.958       .  S
Fe1024     O1027   2.035       .  S
Fe1024     O1031   2.100       .  S
Fe1024     O1035   2.034       .  S
Fe1024     O1040   2.099       .  S
Fe1024     O1034   1.957       .  S
Fe1025     O1391   2.099       .  S
Fe1025     O1378   2.035       .  S
Fe1025     O1037   2.035       .  S
Fe1025     O1026   2.099       .  S
O1026      C1033   1.275       .  A
O1027      C1041   1.266       .  A
O1028      C1033   1.266       .  A
O1029      C1032   1.274       .  A
O1030     Fe1373   2.035       .  S
O1031      C1392   1.275   1_545  A
C1032      O1037   1.266       .  A
O1034     Fe1371   1.958   1_545  S
O1035      C1038   1.265       .  A
O1036      C1386   1.274       .  A
C1038      O1384   1.274   1_545  A
O1039      C1044   1.265       .  A
O1040      C1042   1.275       .  A
O1043     Fe1373   2.099       .  S
C1044      O1379   1.275       .  A
C1045      C1046   1.406       .  A
C1045      C1152   1.489       .  S
C1046      C1221   1.406   1_556  A
C1046      H1051   1.083       .  S
C1047      C1220   1.406       .  A
C1047      C1101   1.488       .  S
C1048      C1049   1.405   1_455  A
C1048      H1052   1.083       .  S
C1049      C1224   1.406   1_565  A
C1049      C1074   1.487       .  S
C1050      C1223   1.406   1_546  A
C1050      H1053   1.083       .  S
C1054      C1055   1.406       .  A
C1054      C1059   1.406       .  A
C1054      C1161   1.489       .  S
C1055      C1056   1.406       .  A
C1055      H1060   1.083       .  S
C1056      C1057   1.405       .  A
C1056      C1170   1.487       .  S
C1057      C1058   1.405       .  A
C1057      H1061   1.083       .  S
C1058      C1059   1.406       .  A
C1058      C1083   1.488       .  S
C1059      H1062   1.083       .  S
C1063      C1064   1.406       .  A
C1063      C1068   1.405       .  A
C1063      C1110   1.488       .  S
C1064      C1065   1.406       .  A
C1064      H1069   1.083       .  S
C1065      C1066   1.406       .  A
C1065      C1092   1.489       .  S
C1066      C1067   1.406       .  A
C1066      H1070   1.083       .  S
C1067      C1068   1.405       .  A
C1067      C1119   1.488       .  S
C1068      H1071   1.083       .  S
C1072      C1073   1.408       .  A
C1072      C1077   1.407       .  A
C1072      C1184   1.476       .  S
C1073      C1074   1.399       .  A
C1073      H1078   1.084       .  S
C1074      C1249   1.399       .  A
C1075      C1248   1.399       .  A
C1075      C1076   1.408       .  A
C1075      H1079   1.084       .  S
C1076      C1251   1.407       .  A
C1076      C1135   1.476       .  S
C1077      C1250   1.407       .  A
C1077      H1080   1.083       .  S
C1081      C1082   1.408       .  A
C1081      C1086   1.407       .  A
C1081      C1185   1.477       .  S
C1082      C1083   1.400       .  A
C1082      H1087   1.084       .  S
C1083      C1084   1.398       .  A
C1084      C1085   1.407       .  A
C1084      H1088   1.084       .  S
C1085      C1086   1.407       .  A
C1085      C1206   1.476       .  S
C1086      H1089   1.083       .  S
C1090      C1091   1.408       .  A
C1090      C1095   1.407       .  A
C1090      C1136   1.477       .  S
C1091      C1092   1.399       .  A
C1091      H1096   1.084       .  S
C1092      C1093   1.399       .  A
C1093      C1094   1.408       .  A
C1093      H1097   1.084       .  S
C1094      C1095   1.407       .  A
C1094      C1207   1.477       .  S
C1095      H1098   1.083       .  S
C1099      C1100   1.408       .  A
C1099      C1144   1.477       .  S
C1100      H1105   1.084       .  S
C1101      C1102   1.398       .  A
C1102      C1103   1.407       .  A
C1102      H1106   1.084       .  S
C1103      C1104   1.407       .  A
C1103      C1196   1.475       .  S
C1104      H1107   1.083       .  S
C1108      C1113   1.407       .  A
C1108      C1216   1.477       .  S
C1109      C1110   1.399       .  A
C1109      H1114   1.084       .  S
C1110      C1111   1.399       .  A
C1111      H1115   1.084       .  S
C1112      C1113   1.407       .  A
C1112      C1141   1.476       .  S
C1113      H1116   1.083       .  S
C1117      C1122   1.407       .  A
C1117      C1145   1.476       .  S
C1118      C1119   1.399       .  A
C1118      H1123   1.084       .  S
C1119      C1120   1.398       .  A
C1120      C1121   1.407       .  A
C1120      H1124   1.084       .  S
C1121      C1212   1.475       .  S
C1122      H1125   1.083       .  S
Fe1126     O1142   2.035       .  S
Fe1126     O1132   2.097       .  S
Fe1126     O1139   2.097       .  S
Fe1126     O1131   2.035       .  S
Fe1126     O1137   1.957       .  S
Fe1127     O1130   2.035       .  S
Fe1127     O1134   2.098       .  S
Fe1127     O1138   2.035       .  S
Fe1127     O1143   2.098       .  S
Fe1127     O1137   1.958       .  S
Fe1128     O1146   2.100       .  S
Fe1128     O1133   2.035       .  S
Fe1128     O1140   2.035       .  S
Fe1128     O1129   2.100       .  S
Fe1128     O1137   1.957       .  S
O1129      C1136   1.275       .  A
O1130      C1144   1.265       .  A
O1131      C1136   1.266       .  A
O1132      C1135   1.274       .  A
O1133      C1145   1.265       .  A
O1134      C1147   1.274       .  A
C1135      O1140   1.266       .  A
O1138      C1141   1.266       .  A
O1139      C1141   1.274       .  A
O1142      C1147   1.265       .  A
O1143      C1145   1.274       .  A
C1144      O1146   1.275       .  A
C1147      C1150   1.476       .  S
C1148      C1153   1.409       .  A
C1148      C1193   1.477       .  S
C1149      C1150   1.407   1_556  A
C1149      H1154   1.083       .  S
C1150      C1151   1.408       .  A
C1151      C1152   1.399   1_554  A
C1151      H1155   1.084       .  S
C1153      H1156   1.084       .  S
C1157      C1162   1.408       .  A
C1157      C1218   1.477       .  S
C1158      C1159   1.407       .  A
C1158      H1163   1.083       .  S
C1159      C1190   1.476       .  S
C1160      C1161   1.399       .  A
C1160      H1164   1.084       .  S
C1161      C1162   1.399       .  A
C1162      H1165   1.084       .  S
C1166      C1171   1.408       .  A
C1166      C1215   1.476       .  S
C1167      C1168   1.407       .  A
C1167      H1172   1.083       .  S
C1168      C1194   1.476       .  S
C1169      C1170   1.398       .  A
C1169      H1173   1.084       .  S
C1170      C1171   1.399       .  A
C1171      H1174   1.084       .  S
Fe1175     O1191   2.034       .  S
Fe1175     O1181   2.098       .  S
Fe1175     O1188   2.099       .  S
Fe1175     O1180   2.036       .  S
Fe1175     O1186   1.957       .  S
Fe1176     O1179   2.035       .  S
Fe1176     O1183   2.097       .  S
Fe1176     O1187   2.034       .  S
Fe1176     O1192   2.097       .  S
Fe1176     O1186   1.958       .  S
Fe1177     O1195   2.100       .  S
Fe1177     O1182   2.035       .  S
Fe1177     O1189   2.036       .  S
Fe1177     O1178   2.100       .  S
Fe1177     O1186   1.956       .  S
O1178      C1185   1.275       .  A
O1179      C1193   1.266       .  A
O1180      C1185   1.266       .  A
O1181      C1184   1.274       .  A
O1182      C1194   1.266       .  A
O1183      C1196   1.274       .  A
C1184      O1189   1.266       .  A
O1187      C1190   1.265       .  A
O1188      C1190   1.275       .  A
O1191      C1196   1.265       .  A
O1192      C1194   1.274       .  A
C1193      O1195   1.275       .  A
Fe1197     O1213   2.035       .  S
Fe1197     O1210   2.097       .  S
Fe1198     O1201   2.035       .  S
Fe1198     O1205   2.100       .  S
Fe1198     O1209   2.034       .  S
Fe1198     O1214   2.099       .  S
Fe1198     O1208   1.957       .  S
Fe1199     O1211   2.035   1_545  S
Fe1199     O1200   2.099   1_545  S
O1200      C1207   1.275       .  A
O1201      C1215   1.266       .  A
O1202      C1207   1.266       .  A
O1203      C1206   1.274       .  A
C1206      O1211   1.266       .  A
O1209      C1212   1.265       .  A
O1213      C1218   1.265       .  A
O1214      C1216   1.275       .  A
C1219      C1220   1.406       .  A
C1219      C1326   1.489       .  S
C1220      H1225   1.083       .  S
C1221      C1275   1.488       .  S
C1222      C1223   1.405   1_455  A
C1222      H1226   1.083       .  S
C1223      C1248   1.487       .  S
C1224      H1227   1.083       .  S
C1228      C1229   1.406       .  A
C1228      C1233   1.406       .  A
C1228      C1335   1.489       .  S
C1229      C1230   1.406       .  A
C1229      H1234   1.083       .  S
C1230      C1231   1.405       .  A
C1230      C1344   1.487       .  S
C1231      C1232   1.405       .  A
C1231      H1235   1.083       .  S
C1232      C1233   1.406       .  A
C1232      C1257   1.488       .  S
C1233      H1236   1.083       .  S
C1237      C1238   1.406       .  A
C1237      C1242   1.405       .  A
C1237      C1284   1.488       .  S
C1238      C1239   1.406       .  A
C1238      H1243   1.083       .  S
C1239      C1240   1.406       .  A
C1239      C1266   1.489       .  S
C1240      C1241   1.406       .  A
C1240      H1244   1.083       .  S
C1241      C1242   1.405       .  A
C1241      C1293   1.488       .  S
C1242      H1245   1.083       .  S
C1246      C1247   1.408       .  A
C1246      C1251   1.407   1_556  A
C1246      C1358   1.476       .  S
C1247      C1248   1.399   1_556  A
C1247      H1252   1.084       .  S
C1249      C1250   1.408       .  A
C1249      H1253   1.084       .  S
C1250      C1309   1.476       .  S
C1251      H1254   1.083       .  S
C1255      C1256   1.408       .  A
C1255      C1260   1.407       .  A
C1255      C1359   1.477       .  S
C1256      C1257   1.400       .  A
C1256      H1261   1.084       .  S
C1257      C1258   1.398       .  A
C1258      C1259   1.407       .  A
C1258      H1262   1.084       .  S
C1259      C1260   1.407       .  A
C1259      C1380   1.476       .  S
C1260      H1263   1.083       .  S
C1264      C1265   1.408       .  A
C1264      C1269   1.407       .  A
C1264      C1310   1.477       .  S
C1265      C1266   1.399       .  A
C1265      H1270   1.084       .  S
C1266      C1267   1.399       .  A
C1267      C1268   1.408       .  A
C1267      H1271   1.084       .  S
C1268      C1269   1.407       .  A
C1268      C1381   1.477       .  S
C1269      H1272   1.083       .  S
C1273      C1274   1.408       .  A
C1273      C1318   1.477       .  S
C1274      H1279   1.084       .  S
C1275      C1276   1.398   1_554  A
C1276      C1277   1.407       .  A
C1276      H1280   1.084       .  S
C1277      C1278   1.407   1_556  A
C1277      C1370   1.475       .  S
C1278      H1281   1.083       .  S
C1282      C1287   1.407       .  A
C1282      C1390   1.477       .  S
C1283      C1284   1.399       .  A
C1283      H1288   1.084       .  S
C1284      C1285   1.399       .  A
C1285      H1289   1.084       .  S
C1286      C1287   1.407       .  A
C1286      C1315   1.476       .  S
C1287      H1290   1.083       .  S
C1291      C1296   1.407       .  A
C1291      C1319   1.476       .  S
C1292      C1293   1.399       .  A
C1292      H1297   1.084       .  S
C1293      C1294   1.398       .  A
C1294      C1295   1.407       .  A
C1294      H1298   1.084       .  S
C1295      C1386   1.475       .  S
C1296      H1299   1.083       .  S
Fe1300     O1316   2.035       .  S
Fe1300     O1306   2.097       .  S
Fe1300     O1313   2.097       .  S
Fe1300     O1305   2.035       .  S
Fe1300     O1311   1.957       .  S
Fe1301     O1304   2.035       .  S
Fe1301     O1308   2.098       .  S
Fe1301     O1312   2.035       .  S
Fe1301     O1317   2.098       .  S
Fe1301     O1311   1.958       .  S
Fe1302     O1320   2.100       .  S
Fe1302     O1307   2.035       .  S
Fe1302     O1314   2.035       .  S
Fe1302     O1303   2.100       .  S
Fe1302     O1311   1.957       .  S
O1303      C1310   1.275       .  A
O1304      C1318   1.265       .  A
O1305      C1310   1.266       .  A
O1306      C1309   1.274       .  A
O1307      C1319   1.265       .  A
O1308      C1321   1.274       .  A
C1309      O1314   1.266       .  A
O1312      C1315   1.266       .  A
O1313      C1315   1.274       .  A
O1316      C1321   1.265       .  A
O1317      C1319   1.274       .  A
C1318      O1320   1.275       .  A
C1321      C1324   1.476       .  S
C1322      C1327   1.409       .  A
C1322      C1367   1.477       .  S
C1323      C1324   1.407       .  A
C1323      H1328   1.083       .  S
C1324      C1325   1.408       .  A
C1325      C1326   1.399       .  A
C1325      H1329   1.084       .  S
C1327      H1330   1.084       .  S
C1331      C1336   1.408       .  A
C1331      C1392   1.477       .  S
C1332      C1333   1.407       .  A
C1332      H1337   1.083       .  S
C1333      C1364   1.476       .  S
C1334      C1335   1.399       .  A
C1334      H1338   1.084       .  S
C1335      C1336   1.399       .  A
C1336      H1339   1.084       .  S
C1340      C1345   1.408       .  A
C1340      C1389   1.476       .  S
C1341      C1342   1.407       .  A
C1341      H1346   1.083       .  S
C1342      C1368   1.476       .  S
C1343      C1344   1.398       .  A
C1343      H1347   1.084       .  S
C1344      C1345   1.399       .  A
C1345      H1348   1.084       .  S
Fe1349     O1365   2.034       .  S
Fe1349     O1355   2.098       .  S
Fe1349     O1362   2.099       .  S
Fe1349     O1354   2.036       .  S
Fe1349     O1360   1.957       .  S
Fe1350     O1353   2.035       .  S
Fe1350     O1357   2.097       .  S
Fe1350     O1361   2.034       .  S
Fe1350     O1366   2.097       .  S
Fe1350     O1360   1.958       .  S
Fe1351     O1369   2.100       .  S
Fe1351     O1356   2.035       .  S
Fe1351     O1363   2.036       .  S
Fe1351     O1352   2.100       .  S
Fe1351     O1360   1.956       .  S
O1352      C1359   1.275       .  A
O1353      C1367   1.266       .  A
O1354      C1359   1.266       .  A
O1355      C1358   1.274       .  A
O1356      C1368   1.266       .  A
O1357      C1370   1.274       .  A
C1358      O1363   1.266       .  A
O1361      C1364   1.265       .  A
O1362      C1364   1.275       .  A
O1365      C1370   1.265       .  A
O1366      C1368   1.274       .  A
C1367      O1369   1.275       .  A
Fe1371     O1387   2.035       .  S
Fe1371     O1384   2.097       .  S
Fe1372     O1375   2.035       .  S
Fe1372     O1379   2.100       .  S
Fe1372     O1383   2.034       .  S
Fe1372     O1388   2.099       .  S
Fe1372     O1382   1.957       .  S
Fe1373     O1385   2.035   1_545  S
Fe1373     O1374   2.099   1_545  S
O1374      C1381   1.275       .  A
O1375      C1389   1.266       .  A
O1376      C1381   1.266       .  A
O1377      C1380   1.274       .  A
C1380      O1385   1.266       .  A
O1383      C1386   1.265       .  A
O1387      C1392   1.265       .  A
O1388      C1390   1.275       .  A
