geometry optimzed in LAMMPS
_audit_creation_date              2020-12-01 
_audit_creation_method            'lammps2cif' 
_symmetry_space_group_name_H-M    'P1' 
_symmetry_Int_Tables_number       1 
_symmetry_cell_setting            triclinic 
loop_ 
_symmetry_equiv_pos_as_xyz 
  x,y,z 
_cell_length_a                    67.80007745 
_cell_length_b                    67.74577176902872 
_cell_length_c                    67.71346235182762 
_cell_angle_alpha                 89.96961088072969 
_cell_angle_beta                  90.02895835107161 
_cell_angle_gamma                 89.97213965676266 
loop_ 
_atom_site_label 
_atom_site_type_symbol 
_atom_site_fract_x 
_atom_site_fract_y 
_atom_site_fract_z 
_atom_site_charge 
C1          C  0.65662810  0.66866497  0.80470824     0.80700
N2          N  0.66481870  0.67723294  0.82090562    -0.77600
C3          C  0.68246851  0.67083262  0.82793052     0.83100
N4          N  0.69176872  0.65563068  0.81881859    -0.77600
C5          C  0.68362190  0.64676099  0.80280693     0.83200
N6          N  0.66618240  0.65354624  0.79561731    -0.79300
C7          C  0.68661307  0.88331894  0.64432052     0.80700
N8          N  0.67064789  0.87296452  0.65054294    -0.77600
C9          C  0.66364946  0.85764587  0.63968061     0.83100
N10         N  0.67242636  0.85307915  0.62227980    -0.77600
C11         C  0.68815504  0.86357104  0.61571661     0.83200
N12         N  0.69536675  0.87851871  0.62693678    -0.79300
C13         C  0.87537433  0.68729637  0.60999687     0.80700
N14         N  0.89075490  0.69527963  0.61996150    -0.77600
C15         C  0.89789987  0.68649927  0.63649451     0.83100
N16         N  0.88950106  0.66948593  0.64302500    -0.77600
C17         C  0.87403337  0.66138243  0.63317501     0.83200
N18         N  0.86714448  0.67031827  0.61662691    -0.79300
C19         C  0.85278136  0.85453117  0.84684628     0.80700
N20         N  0.84352046  0.87077711  0.83968006    -0.77600
C21         C  0.85065427  0.88035192  0.82358485     0.83100
N22         N  0.86733810  0.87351433  0.81482786    -0.77600
C23         C  0.87671027  0.85731403  0.82194119     0.83200
N24         N  0.86931477  0.84779775  0.83789461    -0.79300
O25         O  0.78934563  0.75780495  0.95633854    -0.71300
O26         O  0.75947076  0.72793966  0.99316056    -0.71500
O27         O  0.76191917  0.72937094  0.95357598    -0.71400
O28         O  0.78699784  0.75631848  0.99583946    -0.71400
O29         O  0.76339526  0.77802832  0.99597918    -0.71400
O30         O  0.73948318  0.75214853  0.95235968    -0.71400
O31         O  0.73622737  0.74996351  0.99177419    -0.71300
O32         O  0.76672284  0.78045562  0.95648570    -0.71500
V33         V  0.77399239  0.74326677  0.97470197     1.35200
V34         V  0.75191110  0.76470983  0.97412474     1.35200
C35         C  0.78318810  0.77434439  0.95025844     0.77900
C36         C  0.74280056  0.73403807  0.99888984     0.78000
C37         C  0.74648579  0.73619945  0.94561848     0.77800
C38         C  0.77925693  0.77153765  0.00335942     0.77800
O39         O  0.00508329  0.75293799  0.73161847    -0.71300
O40         O  0.03949078  0.78038835  0.76613771    -0.71500
O41         O  0.00033773  0.77817898  0.76178905    -0.71400
O42         O  0.04420453  0.75523114  0.73610251    -0.71400
O43         O  0.04404178  0.77908486  0.71462136    -0.71400
O44         O  0.00203648  0.80339964  0.74213316    -0.71400
O45         O  0.04134013  0.80437134  0.74500817    -0.71300
O46         O  0.00475148  0.77814416  0.71181526    -0.71500
V47         V  0.02226981  0.76715133  0.74851731     1.35200
V48         V  0.02303686  0.79079383  0.72879287     1.35200
C49         C  0.99888598  0.76092572  0.71591285     0.77900
C50         C  0.04655895  0.79696039  0.76134984     0.78000
C51         C  0.99387967  0.79487433  0.75657946     0.77800
C52         C  0.05138090  0.76310573  0.72081827     0.77800
O53         O  0.76045187  0.00355062  0.71316818    -0.71300
O54         O  0.79187115  0.04027715  0.74111310    -0.71500
O55         O  0.78884935  0.00081329  0.74026634    -0.71400
O56         O  0.76313843  0.04300352  0.71393392    -0.71400
O57         O  0.74053227  0.04323212  0.73664613    -0.71400
O58         O  0.76775186  0.00292328  0.76430856    -0.71400
O59         O  0.76925615  0.04256428  0.76370766    -0.71300
O60         O  0.73912036  0.00343828  0.73704621    -0.71500
V61         V  0.77565353  0.02196599  0.72757700     1.35200
V62         V  0.75456105  0.02302635  0.74997707     1.35200
C63         C  0.74476863  0.99672225  0.72055242     0.77900
C64         C  0.78580292  0.04795626  0.75698325     0.78000
C65         C  0.78262758  0.99463836  0.75673687     0.77800
C66         C  0.74733694  0.05020473  0.72073691     0.77800
C67         C  0.67464922  0.65204010  0.14310545     0.80700
N68         N  0.66008741  0.66241708  0.15203800    -0.77600
C69         C  0.65343254  0.67953982  0.14411530     0.83100
N70         N  0.66162698  0.68647100  0.12720968    -0.77600
C71         C  0.67619709  0.67619025  0.11809238     0.83200
N72         N  0.68277876  0.65910594  0.12622091    -0.79300
C73         C  0.65719292  0.18967070  0.65105454     0.80700
N74         N  0.66559765  0.17422766  0.66072899    -0.77600
C75         C  0.68228041  0.16571617  0.65359009     0.83100
N76         N  0.69030944  0.17250824  0.63653285    -0.77600
C77         C  0.68188928  0.18773698  0.62659864     0.83200
N78         N  0.66549555  0.19644534  0.63410987    -0.79300
C79         C  0.16075872  0.69538748  0.64707819     0.80700
N80         N  0.16876433  0.70282305  0.63035771    -0.77600
C81         C  0.18437486  0.69393019  0.62164374     0.83100
N82         N  0.19186748  0.67717913  0.62960236    -0.77600
C83         C  0.18382153  0.66931614  0.64615824     0.83200
N84         N  0.16837451  0.67858413  0.65490058    -0.79300
C85         C  0.85643488  0.67745051  0.34334624     0.80700
N86         N  0.84651065  0.66319972  0.33334522    -0.77600
C87         C  0.85293157  0.65689826  0.31543664     0.83100
N88         N  0.86935473  0.66505103  0.30750899    -0.77600
C89         C  0.87932435  0.67926912  0.31737652     0.83200
N90         N  0.87289173  0.68546754  0.33525659    -0.79300
O91         O  0.99906583  0.75687819  0.25197529    -0.71300
O92         O  0.03594484  0.78600998  0.22206068    -0.71500
O93         O  0.99663673  0.78260862  0.22215000    -0.71400
O94         O  0.03830217  0.76018577  0.25189468    -0.71400
O95         O  0.04014063  0.73592472  0.23109150    -0.71400
O96         O  0.99869362  0.75868192  0.20098152    -0.71400
O97         O  0.03833051  0.76177786  0.20121186    -0.71300
O98         O  0.00072569  0.73286086  0.23092010    -0.71500
V99         V  0.01753703  0.77095216  0.23658809     1.35200
V100        V  0.01944229  0.74777889  0.21641891     1.35200
C101        C  0.99347652  0.73993239  0.24658463     0.77900
C102        C  0.04353746  0.77885655  0.20663119     0.78000
C103        C  0.99037069  0.77441587  0.20659610     0.77800
C104        C  0.04620898  0.74411255  0.24673461     0.77800
C105        C  0.84665945  0.83864094  0.11825381     0.80700
N106        N  0.84028602  0.85592523  0.12619920    -0.77600
C107        C  0.84963679  0.86405361  0.14198769     0.83100
N108        N  0.86555189  0.85478332  0.14986227    -0.77600
C109        C  0.87222911  0.83765539  0.14193644     0.83200
N110        N  0.86273156  0.82964093  0.12622622    -0.79300
C111        C  0.68508565  0.86005598  0.34201259     0.80700
N112        N  0.66841520  0.85347989  0.33313949    -0.77600
C113        C  0.66225216  0.86170843  0.31597152     0.83100
N114        N  0.67294013  0.87639339  0.30765391    -0.77600
C115        C  0.68975334  0.88304182  0.31627170     0.83200
N116        N  0.69577986  0.87473189  0.33351063    -0.79300
O117        O  0.79963516  0.99671493  0.21354386    -0.71300
O118        O  0.77373706  0.03681284  0.24296186    -0.71500
O119        O  0.77532641  0.99729010  0.24455358    -0.71400
O120        O  0.79833999  0.03622457  0.21172938    -0.71400
O121        O  0.77400149  0.03334830  0.19104938    -0.71400
O122        O  0.74931500  0.99716224  0.22577503    -0.71400
O123        O  0.74957696  0.03653364  0.22183266    -0.71300
O124        O  0.77379584  0.99384750  0.19490216    -0.71500
V125        V  0.78629869  0.01678830  0.22780962     1.35200
V126        V  0.76216044  0.01523550  0.20875345     1.35200
C127        C  0.79086931  0.98795236  0.19957663     0.77900
C128        C  0.75731723  0.04360418  0.23724624     0.78000
C129        C  0.75826897  0.99081146  0.24086846     0.77800
C130        C  0.79019101  0.04128879  0.19571453     0.77800
C131        C  0.38781558  0.86615612  0.63853328     0.80700
N132        N  0.38043576  0.88177075  0.64874685    -0.77600
C133        C  0.36319954  0.89039076  0.64321545     0.83100
N134        N  0.35323754  0.88317000  0.62741240    -0.77600
C135        C  0.36027368  0.86744672  0.61721929     0.83200
N136        N  0.37757679  0.85902210  0.62280811    -0.79300
O137        O  0.26890080  0.03994136  0.76589096    -0.71300
O138        O  0.29859403  0.00349918  0.73527379    -0.71500
O139        O  0.29623806  0.04310208  0.73727156    -0.71400
O140        O  0.27132694  0.00054248  0.76390207    -0.71400
O141        O  0.24793218  0.00063765  0.74207596    -0.71400
O142        O  0.27330646  0.04254863  0.71491122    -0.71400
O143        O  0.27513686  0.00287294  0.71348661    -0.71300
O144        O  0.24608259  0.04014080  0.74338316    -0.71500
V145        V  0.28334479  0.02177657  0.75014194     1.35200
V146        V  0.26109393  0.02154516  0.72887252     1.35200
C147        C  0.25240345  0.04623573  0.75984011     0.77900
C148        C  0.29171654  0.99663732  0.71931890     0.78000
C149        C  0.28892071  0.05023123  0.72162867     0.77800
C150        C  0.25525065  0.99341315  0.75766239     0.77800
C151        C  0.18455264  0.88546974  0.83188600     0.80700
N152        N  0.19304017  0.87548745  0.84703827    -0.77600
C153        C  0.18393332  0.85967085  0.85537379     0.83100
N154        N  0.16622093  0.85381250  0.84809587    -0.77600
C155        C  0.15766065  0.86357540  0.83284627     0.83200
N156        N  0.16696677  0.87927590  0.82461471    -0.79300
C157        C  0.37197112  0.67996637  0.84582302     0.80700
N158        N  0.36253377  0.66352814  0.83930878    -0.77600
C159        C  0.36797185  0.65482169  0.82209141     0.83100
N160        N  0.38296365  0.66280705  0.81150252    -0.77600
C161        C  0.39248339  0.67919445  0.81784548     0.83200
N162        N  0.38668113  0.68797753  0.83488927    -0.79300
O163        O  0.24837496  0.76115884  0.99915356    -0.71300
O164        O  0.28143770  0.73510642  0.96215575    -0.71500
O165        O  0.27656135  0.73364015  0.00163073    -0.71400
O166        O  0.25304657  0.76249247  0.95991859    -0.71400
O167        O  0.27413810  0.78621182  0.96452720    -0.71400
O168        O  0.29944189  0.75590636  0.00413040    -0.71400
O169        O  0.30280819  0.75880084  0.96470566    -0.71300
O170        O  0.27106214  0.78325913  0.00360505    -0.71500
V171        V  0.26532065  0.74848273  0.98076157     1.35200
V172        V  0.28648884  0.77055914  0.98413656     1.35200
C173        C  0.25413163  0.77667907  0.00777489     0.77900
C174        C  0.29753904  0.74279967  0.95670691     0.78000
C175        C  0.29181104  0.74001487  0.01022889     0.77800
C176        C  0.25913418  0.77957949  0.95568334     0.77800
C177        C  0.86712100  0.35127435  0.60596123     0.80700
N178        N  0.86055033  0.36934058  0.61148339    -0.77600
C179        C  0.86992454  0.37961176  0.62584373     0.83100
N180        N  0.88622432  0.37169710  0.63434648    -0.77600
C181        C  0.89319683  0.35373694  0.62882905     0.83200
N182        N  0.88340230  0.34349234  0.61466199    -0.79300
O183        O  0.00394160  0.27022735  0.75680468    -0.71300
O184        O  0.04420914  0.29835737  0.72974998    -0.71500
O185        O  0.00463194  0.29807352  0.72841339    -0.71400
O186        O  0.04342925  0.27081201  0.75803457    -0.71400
O187        O  0.04325832  0.24715263  0.73640875    -0.71400
O188        O  0.00678540  0.27588339  0.70536947    -0.71400
O189        O  0.04595866  0.27467964  0.70824451    -0.71300
O190        O  0.00395625  0.24814527  0.73360682    -0.71500
V191        V  0.02402498  0.28394638  0.74283631     1.35200
V192        V  0.02493730  0.26191165  0.72134811     1.35200
C193        C  0.99706691  0.25434045  0.74978106     0.77900
C194        C  0.05210101  0.29113571  0.71444209     0.78000
C195        C  0.99945518  0.29184893  0.71160901     0.77800
C196        C  0.04991783  0.25431564  0.75228826     0.77800
C197        C  0.86229420  0.15853029  0.81893591     0.80700
N198        N  0.85234033  0.16751008  0.83382965    -0.77600
C199        C  0.85913553  0.18453001  0.84183695     0.83100
N200        N  0.87592763  0.19266452  0.83468403    -0.77600
C201        C  0.88604924  0.18403884  0.81971953     0.83200
N202        N  0.87915693  0.16685560  0.81191546    -0.79300
C203        C  0.69072800  0.38666343  0.80501687     0.80700
N204        N  0.67267294  0.38130038  0.79808425    -0.77600
C205        C  0.66226668  0.36665179  0.80692059     0.83100
N206        N  0.67004869  0.35734492  0.82284680    -0.77600
C207        C  0.68811661  0.36229564  0.82984847     0.83200
N208        N  0.69841477  0.37699442  0.82087119    -0.79300
O209        O  0.76576375  0.24781248  0.95470194    -0.71300
O210        O  0.73854556  0.27451759  0.99563761    -0.71500
O211        O  0.73727117  0.27518314  0.95577500    -0.71400
O212        O  0.76701750  0.24731539  0.99420087    -0.71400
O213        O  0.78955783  0.26999707  0.99321089    -0.71400
O214        O  0.75898057  0.29864715  0.95616676    -0.71400
O215        O  0.76109353  0.29716740  0.99590591    -0.71300
O216        O  0.78741546  0.27137060  0.95368074    -0.71500
V217        V  0.75253461  0.26168824  0.97506294     1.35200
V218        V  0.77379806  0.28389205  0.97473804     1.35200
C219        C  0.78126201  0.25497117  0.94723096     0.77900
C220        C  0.74552065  0.29004161  0.00329769     0.78000
C221        C  0.74323476  0.29155971  0.94910521     0.77800
C222        C  0.78338725  0.25386650  0.00025327     0.77800
C223        C  0.67863888  0.37570961  0.14602398     0.80700
N224        N  0.68691333  0.36700968  0.12998380    -0.77600
C225        C  0.67967812  0.34969722  0.12297110     0.83100
N226        N  0.66394590  0.34118961  0.13195340    -0.77600
C227        C  0.65536249  0.34997547  0.14777524     0.83200
N228        N  0.66290961  0.36708748  0.15491711    -0.79300
C229        C  0.37689115  0.68516299  0.15778845     0.80700
N230        N  0.36912720  0.66908400  0.16689943    -0.77600
C231        C  0.35314350  0.65986734  0.15909877     0.83100
N232        N  0.34478326  0.66687541  0.14230755    -0.77600
C233        C  0.35209004  0.68326019  0.13345157     0.83200
N234        N  0.36819856  0.69222459  0.14119240    -0.79300
C235        C  0.68405341  0.17491487  0.33594549     0.80700
N236        N  0.66592996  0.18107487  0.33028136    -0.77600
C237        C  0.65641144  0.17244006  0.31500699     0.83100
N238        N  0.66532005  0.15746555  0.30503248    -0.77600
C239        C  0.68362221  0.15108148  0.31040595     0.83200
N240        N  0.69278240  0.15991541  0.32596235    -0.79300
C241        C  0.35346190  0.17109777  0.34454335     0.80700
N242        N  0.37014869  0.17908335  0.33700778    -0.77600
C243        C  0.37861300  0.17147856  0.32056346     0.83100
N244        N  0.37002957  0.15587570  0.31140302    -0.77600
C245        C  0.35320364  0.14771808  0.31865275     0.83200
N246        N  0.34491919  0.15560513  0.33513207    -0.79300
C247        C  0.17752628  0.87526942  0.13601843     0.80700
N248        N  0.16097943  0.86735275  0.14412320    -0.77600
C249        C  0.15270044  0.85084820  0.13626363     0.83100
N250        N  0.16127947  0.84224018  0.12037087    -0.77600
C251        C  0.17754656  0.85018338  0.11193286     0.83200
N252        N  0.18565766  0.86665072  0.11986884    -0.79300
C253        C  0.35785673  0.88757011  0.31802337     0.80700
N254        N  0.35083391  0.88100251  0.33559266    -0.77600
C255        C  0.36000935  0.86613812  0.34533591     0.83100
N256        N  0.37632440  0.85776203  0.33743800    -0.77600
C257        C  0.38379094  0.86445784  0.32014514     0.83200
N258        N  0.37439103  0.87923420  0.31036409    -0.79300
O259        O  0.28818317  0.03573037  0.22505000    -0.71300
O260        O  0.25906482  0.99660774  0.19755793    -0.71500
O261        O  0.25915675  0.03611049  0.19782289    -0.71400
O262        O  0.28793358  0.99627121  0.22448284    -0.71400
O263        O  0.26728790  0.99773606  0.24895755    -0.71400
O264        O  0.23629013  0.03454489  0.22016472    -0.71400
O265        O  0.23841281  0.99504133  0.22197131    -0.71300
O266        O  0.26505936  0.03723009  0.24723304    -0.71500
V267        V  0.27316750  0.01622564  0.21166460     1.35200
V268        V  0.25216363  0.01614239  0.23414642     1.35200
C269        C  0.28147297  0.04320575  0.24077304     0.77900
C270        C  0.24402894  0.98876316  0.20532649     0.78000
C271        C  0.24256118  0.04181273  0.20415258     0.77800
C272        C  0.28268254  0.99039930  0.24137590     0.77800
C273        C  0.35415672  0.16377483  0.64995519     0.80700
N274        N  0.34656066  0.17028837  0.63254400    -0.77600
C275        C  0.35395167  0.18670607  0.62374406     0.83100
N276        N  0.36888459  0.19676506  0.63246307    -0.77600
C277        C  0.37671202  0.19042522  0.64979421     0.83200
N278        N  0.36923050  0.17393999  0.65845873    -0.79300
C279        C  0.16505698  0.35819933  0.64590719     0.80700
N280        N  0.17218449  0.37524300  0.65349193    -0.77600
C281        C  0.18757828  0.38451234  0.64477655     0.83100
N282        N  0.19609551  0.37655757  0.62844273    -0.77600
C283        C  0.18896889  0.35942786  0.62077339     0.83200
N284        N  0.17342183  0.35035383  0.62951659    -0.79300
C285        C  0.16975322  0.35779059  0.34908972     0.80700
N286        N  0.15468045  0.34912866  0.33913720    -0.77600
C287        C  0.14633782  0.35834299  0.32339627     0.83100
N288        N  0.15348684  0.37604024  0.31741201    -0.77600
C289        C  0.16884086  0.38467078  0.32696593     0.83200
N290        N  0.17694838  0.37541850  0.34283036    -0.79300
C291        C  0.85595521  0.15632531  0.12997795     0.80700
N292        N  0.87162116  0.16403021  0.13982125    -0.77600
C293        C  0.88044108  0.18076486  0.13331536     0.83100
N294        N  0.87342278  0.19001202  0.11702052    -0.77600
C295        C  0.85752610  0.18272242  0.10730684     0.83200
N296        N  0.84890065  0.16582596  0.11378838    -0.79300
C297        C  0.85694029  0.35775733  0.34560087     0.80700
N298        N  0.87257177  0.34981559  0.33589616    -0.77600
C299        C  0.88059559  0.35898946  0.31998217     0.83100
N300        N  0.87254583  0.37611650  0.31345151    -0.77600
C301        C  0.85671545  0.38414456  0.32271412     0.83200
N302        N  0.84898937  0.37491507  0.33878167    -0.79300
O303        O  0.03410628  0.27539473  0.24904227    -0.71300
O304        O  0.99544946  0.24651296  0.22080377    -0.71500
O305        O  0.03503502  0.24726011  0.22128371    -0.71400
O306        O  0.99466321  0.27461189  0.24871610    -0.71400
O307        O  0.99488564  0.29757506  0.22635774    -0.71400
O308        O  0.03406405  0.26918907  0.19787524    -0.71400
O309        O  0.99460055  0.26947057  0.19850896    -0.71300
O310        O  0.03458665  0.29750626  0.22588627    -0.71500
V311        V  0.01480671  0.26138065  0.23450631     1.35200
V312        V  0.01456717  0.28302669  0.21260137     1.35200
C313        C  0.04105540  0.29134433  0.24229103     0.77900
C314        C  0.98826092  0.25313504  0.20487996     0.78000
C315        C  0.04120566  0.25336927  0.20477605     0.77800
C316        C  0.98789439  0.29077371  0.24228823     0.77800
C317        C  0.17681766  0.68114304  0.35288575     0.80700
N318        N  0.18444828  0.66363411  0.34677693    -0.77600
C319        C  0.17675963  0.65409413  0.33089993     0.83100
N320        N  0.16155392  0.66243534  0.32085144    -0.77600
C321        C  0.15400757  0.68004930  0.32664183     0.83200
N322        N  0.16171311  0.68929720  0.34261137    -0.79300
C323        C  0.17212605  0.15106123  0.13252404     0.80700
N324        N  0.15630562  0.15966028  0.14135755    -0.77600
C325        C  0.14921289  0.17727195  0.13475271     0.83100
N326        N  0.15830665  0.18612790  0.11915868    -0.77600
C327        C  0.17408309  0.17766309  0.11014988     0.83200
N328        N  0.18101649  0.16023598  0.11713405    -0.79300
C329        C  0.35974239  0.38591863  0.14828322     0.80700
N330        N  0.37634514  0.37838417  0.15669117    -0.77600
C331        C  0.38558875  0.36253715  0.14853117     0.83100
N332        N  0.37794730  0.35410992  0.13199699    -0.77600
C333        C  0.36124547  0.36135620  0.12362637     0.83200
N334        N  0.35221953  0.37718381  0.13193134    -0.79300
C335        C  0.18016047  0.15599643  0.82904145     0.80700
N336        N  0.16441111  0.16393821  0.81951856    -0.77600
C337        C  0.15672412  0.18149046  0.82527650     0.83100
N338        N  0.16500463  0.19121435  0.84063898    -0.77600
C339        C  0.18082994  0.18364776  0.85018292     0.83200
N340        N  0.18840963  0.16600458  0.84438675    -0.79300
C341        C  0.35986090  0.39684833  0.82554459     0.80700
N342        N  0.35060097  0.38876271  0.84139156    -0.77600
C343        C  0.35728271  0.37161854  0.84944728     0.83100
N344        N  0.37322104  0.36262078  0.84120676    -0.77600
C345        C  0.38244094  0.37055589  0.82532431     0.83200
N346        N  0.37564617  0.38762016  0.81753771    -0.79300
O347        O  0.27366795  0.30050944  0.00489998    -0.71300
O348        O  0.24538135  0.27284773  0.96527353    -0.71500
O349        O  0.24662504  0.27154521  0.00477516    -0.71400
O350        O  0.27220890  0.30180831  0.96528908    -0.71400
O351        O  0.29672292  0.28113691  0.96548300    -0.71400
O352        O  0.26888585  0.24870533  0.00176843    -0.71400
O353        O  0.26973507  0.25232277  0.96248321    -0.71300
O354        O  0.29597841  0.27754258  0.00486793    -0.71500
V355        V  0.25992393  0.28628930  0.98506282     1.35200
V356        V  0.28240684  0.26534719  0.98368726     1.35200
C357        C  0.28957981  0.29362720  0.01181462     0.77900
C358        C  0.25285002  0.25791531  0.95691907     0.78000
C359        C  0.25299300  0.25465167  0.00951451     0.77800
C360        C  0.28895637  0.29677215  0.95886709     0.77800
O361        O  0.26971722  0.53823822  0.21615494    -0.71300
O362        O  0.23917231  0.49964903  0.24268043    -0.71500
O363        O  0.24159445  0.53903502  0.24389614    -0.71400
O364        O  0.26756612  0.49867801  0.21475120    -0.71400
O365        O  0.29062691  0.49787128  0.23696355    -0.71400
O366        O  0.26313483  0.53579339  0.26738869    -0.71400
O367        O  0.26230730  0.49641047  0.26465395    -0.71300
O368        O  0.29131163  0.53723024  0.23975043    -0.71500
V369        V  0.25493360  0.51881186  0.22978142     1.35200
V370        V  0.27641674  0.51683040  0.25173554     1.35200
C371        C  0.28555631  0.54466052  0.22362895     0.77900
C372        C  0.24547017  0.49157444  0.25828198     0.78000
C373        C  0.24780010  0.54407928  0.26078118     0.77800
C374        C  0.28392419  0.49183779  0.22063963     0.77800
O375        O  0.53425800  0.23644988  0.23701509    -0.71300
O376        O  0.49722703  0.26823694  0.20960470    -0.71500
O377        O  0.53658597  0.26569349  0.21026967    -0.71400
O378        O  0.49482214  0.23910893  0.23648729    -0.71400
O379        O  0.49548631  0.26120654  0.25966186    -0.71400
O380        O  0.53821960  0.28665432  0.23442221    -0.71400
O381        O  0.49906555  0.29029468  0.23276777    -0.71300
O382        O  0.53473533  0.25752011  0.26110427    -0.71500
V383        V  0.51573610  0.25276779  0.22380776     1.35200
V384        V  0.51682328  0.27349415  0.24653744     1.35200
C385        C  0.54081118  0.24146088  0.25375074     0.77900
C386        C  0.49222885  0.28493929  0.21623066     0.78000
C387        C  0.54454061  0.28075560  0.21791883     0.77800
C388        C  0.48814613  0.24557038  0.25268477     0.77800
O389        O  0.24337825  0.27033903  0.50098466    -0.71300
O390        O  0.26781384  0.24021675  0.46056768    -0.71500
O391        O  0.27040640  0.24146786  0.50010261    -0.71400
O392        O  0.24067082  0.26918927  0.46140443    -0.71400
O393        O  0.26382142  0.29113918  0.45935590    -0.71400
O394        O  0.29367156  0.26323190  0.49767599    -0.71400
O395        O  0.29089518  0.26224506  0.45816541    -0.71300
O396        O  0.26672826  0.29207039  0.49882606    -0.71500
V397        V  0.25600349  0.25571736  0.48068700     1.35200
V398        V  0.27832639  0.27673703  0.47852520     1.35200
C399        C  0.25096116  0.28633007  0.50692694     0.77900
C400        C  0.28362578  0.24600861  0.45256021     0.78000
C401        C  0.28709668  0.24770813  0.50566676     0.77800
C402        C  0.24706961  0.28504964  0.45388293     0.77800
O403        O  0.24211134  0.77905541  0.46038212    -0.71300
O404        O  0.26951779  0.80668390  0.50084145    -0.71500
O405        O  0.27076882  0.80630432  0.46121588    -0.71400
O406        O  0.24080235  0.77954504  0.49999109    -0.71400
O407        O  0.26288453  0.75632695  0.50101161    -0.71400
O408        O  0.29269550  0.78295441  0.46213964    -0.71400
O409        O  0.29147825  0.78340777  0.50158687    -0.71300
O410        O  0.26401124  0.75564739  0.46178423    -0.71500
V411        V  0.25621467  0.79246681  0.48060283     1.35200
V412        V  0.27735177  0.77007241  0.48157198     1.35200
C413        C  0.24829301  0.76246162  0.45447944     0.77900
C414        C  0.28511853  0.79959020  0.50828335     0.78000
C415        C  0.28692046  0.79925644  0.45516739     0.77800
C416        C  0.24681175  0.76342516  0.50718312     0.77800
O417        O  0.74201916  0.25975291  0.45800904    -0.71300
O418        O  0.77117953  0.28586625  0.49821662    -0.71500
O419        O  0.77089038  0.28682158  0.45882927    -0.71400
O420        O  0.74209451  0.25910624  0.49786839    -0.71400
O421        O  0.76426707  0.23601362  0.49812420    -0.71400
O422        O  0.79209293  0.26282395  0.45728162    -0.71400
O423        O  0.79326050  0.26276555  0.49676684    -0.71300
O424        O  0.76332555  0.23582537  0.45848365    -0.71500
V425        V  0.75689235  0.27238842  0.47820976     1.35200
V426        V  0.77778043  0.24978712  0.47767614     1.35200
C427        C  0.74784866  0.24328917  0.45136215     0.77900
C428        C  0.78753716  0.27892888  0.50398226     0.78000
C429        C  0.78638561  0.27962802  0.45141348     0.77800
C430        C  0.74848432  0.24313799  0.50511653     0.77800
O431        O  0.27006845  0.50736142  0.75675318    -0.71300
O432        O  0.24200488  0.54692045  0.72910281    -0.71500
O433        O  0.24244297  0.50732792  0.72846820    -0.71400
O434        O  0.26980077  0.54676257  0.75747451    -0.71400
O435        O  0.29319419  0.54625763  0.73556746    -0.71400
O436        O  0.26478894  0.50880720  0.70560895    -0.71400
O437        O  0.26549964  0.54835020  0.70735441    -0.71300
O438        O  0.29234449  0.50710527  0.73377726    -0.71500
V439        V  0.25646908  0.52713568  0.74249617     1.35200
V440        V  0.27845953  0.52765938  0.72096397     1.35200
C441        C  0.28600386  0.50046506  0.75001523     0.77900
C442        C  0.24905517  0.55450388  0.71360475     0.78000
C443        C  0.24915318  0.50112056  0.71218194     0.77800
C444        C  0.28660125  0.55255563  0.75181371     0.77800
O445        O  0.73926840  0.53384487  0.22691715    -0.71300
O446        O  0.77150373  0.49803203  0.25518753    -0.71500
O447        O  0.76767766  0.53727240  0.25408637    -0.71400
O448        O  0.74292878  0.49470531  0.22783235    -0.71400
O449        O  0.76440818  0.49671627  0.20416359    -0.71400
O450        O  0.79030619  0.53807642  0.23143854    -0.71400
O451        O  0.79310879  0.49862818  0.23156783    -0.71300
O452        O  0.76175992  0.53616193  0.20420774    -0.71500
V453        V  0.75579688  0.51594861  0.24056703     1.35200
V454        V  0.77698390  0.51733992  0.21827793     1.35200
C455        C  0.74507347  0.54122900  0.21082238     0.77900
C456        C  0.78780807  0.49219289  0.24826901     0.78000
C457        C  0.78319309  0.54496868  0.24724633     0.77800
C458        C  0.74914752  0.48873496  0.21129078     0.77800
O459        O  0.49705285  0.25652308  0.73039685    -0.71300
O460        O  0.53737908  0.28528894  0.75636147    -0.71500
O461        O  0.49794482  0.28490694  0.75766929    -0.71400
O462        O  0.53668077  0.25681910  0.72911983    -0.71400
O463        O  0.53706825  0.27980942  0.70681024    -0.71400
O464        O  0.49552404  0.30615374  0.73385419    -0.71400
O465        O  0.53494527  0.30845083  0.73428250    -0.71300
O466        O  0.49745262  0.27768544  0.70629268    -0.71500
V467        V  0.51724310  0.27129658  0.74291411     1.35200
V468        V  0.51627689  0.29260348  0.72070707     1.35200
C469        C  0.49044633  0.26214260  0.71386350     0.77900
C470        C  0.54271542  0.30197552  0.74996637     0.78000
C471        C  0.48992720  0.30019478  0.75066583     0.77800
C472        C  0.54387725  0.26367275  0.71333810     0.77800
O473        O  0.53949326  0.77148049  0.20708694    -0.71300
O474        O  0.50130128  0.80011749  0.23601941    -0.71500
O475        O  0.54063072  0.80057588  0.23385818    -0.71400
O476        O  0.49996702  0.77114353  0.20930844    -0.71400
O477        O  0.50191848  0.74909932  0.23250523    -0.71400
O478        O  0.54181370  0.77911404  0.25761916    -0.71400
O479        O  0.50238517  0.77811512  0.25929645    -0.71300
O480        O  0.54140282  0.75007859  0.23084123    -0.71500
V481        V  0.52039358  0.78538884  0.22200146     1.35200
V482        V  0.52186394  0.76450782  0.24460425     1.35200
C483        C  0.54709318  0.75594277  0.21406510     0.77900
C484        C  0.49527740  0.79399971  0.25256759     0.78000
C485        C  0.54799304  0.79502297  0.25007225     0.77800
C486        C  0.49392396  0.75514631  0.21676583     0.77800
O487        O  0.77281861  0.79834923  0.45809934    -0.71300
O488        O  0.80216795  0.77256536  0.49800832    -0.71500
O489        O  0.80007301  0.76953683  0.45874172    -0.71400
O490        O  0.77476217  0.80128672  0.49752881    -0.71400
O491        O  0.75200614  0.77897375  0.50047345    -0.71400
O492        O  0.77669321  0.74788628  0.46141877    -0.71400
O493        O  0.77928426  0.75036889  0.50059889    -0.71300
O494        O  0.74952836  0.77666933  0.46112351    -0.71500
V495        V  0.78700487  0.78504382  0.47814136     1.35200
V496        V  0.76480894  0.76393357  0.48084509     1.35200
C497        C  0.75613076  0.79201919  0.45278949     0.77900
C498        C  0.79592925  0.75686740  0.50591288     0.78000
C499        C  0.79280494  0.75307894  0.45370377     0.77800
C500        C  0.75910172  0.79534998  0.50577660     0.77800
O501        O  0.76056062  0.49785938  0.71380317    -0.71300
O502        O  0.78843845  0.53946479  0.68867490    -0.71500
O503        O  0.78997521  0.50008649  0.68702567    -0.71400
O504        O  0.75917069  0.53723741  0.71531857    -0.71400
O505        O  0.78027015  0.53639506  0.73935522    -0.71400
O506        O  0.81182317  0.50031650  0.71051664    -0.71400
O507        O  0.80945056  0.53980129  0.71287399    -0.71300
O508        O  0.78266902  0.49699047  0.73703083    -0.71500
V509        V  0.77496017  0.51861757  0.70164835     1.35200
V510        V  0.79565309  0.51838258  0.72446584     1.35200
C511        C  0.76674108  0.49052657  0.72983278     0.77900
C512        C  0.80356758  0.54691171  0.69664255     0.78000
C513        C  0.80627034  0.49409076  0.69383452     0.77800
C514        C  0.76431121  0.54300786  0.73231698     0.77800
O515        O  0.54021970  0.73768552  0.72051083    -0.71300
O516        O  0.50403865  0.77025097  0.69251042    -0.71500
O517        O  0.54349762  0.76641272  0.69321676    -0.71400
O518        O  0.50094553  0.74147519  0.71970424    -0.71400
O519        O  0.50335335  0.76290730  0.74344003    -0.71400
O520        O  0.54471781  0.78861531  0.71629154    -0.71400
O521        O  0.50512446  0.79168998  0.71627942    -0.71300
O522        O  0.54250103  0.75992380  0.74341842    -0.71500
V523        V  0.52221238  0.75439826  0.70689849     1.35200
V524        V  0.52387298  0.77540734  0.72934783     1.35200
C525        C  0.54742341  0.74315800  0.73685963     0.77900
C526        C  0.49817582  0.78642967  0.69975379     0.78000
C527        C  0.55138740  0.78176736  0.70027427     0.77800
C528        C  0.49540439  0.74759435  0.73642629     0.77800
C529        C  0.29651210  0.32636504  0.91233129    -0.01600
C530        C  0.31700390  0.33001787  0.91278279     0.07000
C531        C  0.32814785  0.32323984  0.92890822    -0.07500
C532        C  0.31933512  0.31243026  0.94413413     0.04500
C533        C  0.29888873  0.30863851  0.94357560    -0.14800
C534        C  0.28762116  0.31595298  0.92779403    -0.08100
C535        C  0.32719411  0.34062165  0.89652112     0.05400
C536        C  0.32130472  0.35984327  0.89159381    -0.09200
C537        C  0.33056117  0.37030529  0.87633321     0.00400
C538        C  0.34660821  0.36166765  0.86598086     0.00300
C539        C  0.35244383  0.34237768  0.87118558    -0.12800
C540        C  0.34280010  0.33181561  0.88601455     0.00700
C541        C  0.32286845  0.38963845  0.87173442     0.40000
C542        C  0.34877300  0.31166525  0.88966057     0.36700
C543        C  0.28444896  0.33237495  0.89580075     0.36400
C544        C  0.33148484  0.30589719  0.96039682     0.37200
N545        N  0.31630730  0.40500470  0.86816103    -0.43600
N546        N  0.35354155  0.29551119  0.89252521    -0.44100
N547        N  0.34123584  0.30069351  0.97343232    -0.41400
N548        N  0.27477584  0.33716319  0.88254964    -0.42900
H549        H  0.27191196  0.31296201  0.92722354     0.13300
H550        H  0.34383751  0.32631079  0.92951568     0.09800
H551        H  0.30931067  0.36668473  0.89969110     0.10800
H552        H  0.36442571  0.33518114  0.86342978     0.16700
C553        C  0.42950112  0.36234265  0.79695434    -0.01600
C554        C  0.42878440  0.34188389  0.79324733     0.07000
C555        C  0.41328790  0.33064131  0.80109202    -0.07500
C556        C  0.39832779  0.33952121  0.81215364     0.04500
C557        C  0.39870950  0.36011959  0.81536822    -0.14800
C558        C  0.41436397  0.37131073  0.80770034    -0.08100
C559        C  0.44445250  0.33161991  0.78203570     0.05400
C560        C  0.45533772  0.31697848  0.79171307    -0.09200
C561        C  0.47013763  0.30654815  0.78190988     0.00400
C562        C  0.47436455  0.31080234  0.76183686     0.00300
C563        C  0.46331192  0.32549491  0.75215740    -0.12800
C564        C  0.44834538  0.33576039  0.76200452     0.00700
C565        C  0.48070421  0.29177291  0.79309139     0.40000
C566        C  0.43683938  0.35003296  0.75110237     0.36700
C567        C  0.44585848  0.37430951  0.79039497     0.36400
C568        C  0.38239207  0.32724924  0.81919020     0.37200
N569        N  0.48906674  0.27992841  0.80214103    -0.43600
N570        N  0.42766677  0.36151346  0.74237688    -0.44100
N571        N  0.36966037  0.31735598  0.82480542    -0.41400
N572        N  0.45897416  0.38388303  0.78512811    -0.42900
H573        H  0.41484502  0.38711053  0.81025761     0.13300
H574        H  0.41281139  0.31486465  0.79838468     0.09800
H575        H  0.45226611  0.31373720  0.80710574     0.10800
H576        H  0.46614028  0.32881553  0.73674891     0.16700
C577        C  0.33877770  0.42579024  0.78334397    -0.01600
C578        C  0.33204520  0.44304163  0.79278031     0.07000
C579        C  0.33502886  0.44544784  0.81315475    -0.07500
C580        C  0.34443698  0.43076608  0.82423886     0.04500
C581        C  0.35095426  0.41342825  0.81479324    -0.14800
C582        C  0.34833997  0.41128521  0.79435136    -0.08100
C583        C  0.32065939  0.45808661  0.78191418     0.05400
C584        C  0.30080442  0.46077273  0.78688166    -0.09200
C585        C  0.28908392  0.47425900  0.77660827     0.00400
C586        C  0.29737356  0.48545300  0.76102675     0.00300
C587        C  0.31734136  0.48268705  0.75613561    -0.12800
C588        C  0.32901811  0.46922053  0.76647892     0.00700
C589        C  0.26857746  0.47581290  0.78216577     0.40000
C590        C  0.34956570  0.46730385  0.76118552     0.36700
C591        C  0.33520051  0.42217500  0.76262401     0.36400
C592        C  0.34774725  0.43408942  0.84502800     0.37200
N593        N  0.25215609  0.47699434  0.78667536    -0.43600
N594        N  0.36599845  0.46571949  0.75684994    -0.44100
N595        N  0.35045187  0.43689688  0.86166757    -0.41400
N596        N  0.33236736  0.41925980  0.74602531    -0.42900
H597        H  0.35315693  0.39786826  0.78705140     0.13300
H598        H  0.32985633  0.45876097  0.82039019     0.09800
H599        H  0.29437478  0.45203887  0.79867199     0.10800
H600        H  0.32399265  0.49127421  0.74437386     0.16700
C601        C  0.20423694  0.19574986  0.89920528    -0.01600
C602        C  0.20827671  0.21609685  0.89712209     0.07000
C603        C  0.20283926  0.22580573  0.87966628    -0.07500
C604        C  0.19365126  0.21555713  0.86431029     0.04500
C605        C  0.19016847  0.19506039  0.86615952    -0.14800
C606        C  0.19550224  0.18536378  0.88364918    -0.08100
C607        C  0.21942508  0.22713550  0.91237132     0.05400
C608        C  0.23824687  0.22038223  0.91758493    -0.09200
C609        C  0.24941748  0.23001403  0.93197076     0.00400
C610        C  0.24190173  0.24720985  0.94122828     0.00300
C611        C  0.22314192  0.25417098  0.93562611    -0.12800
C612        C  0.21188398  0.24428639  0.92141614     0.00700
C613        C  0.26832186  0.22153015  0.93695563     0.40000
C614        C  0.19245141  0.25172790  0.91680599     0.36700
C615        C  0.20857032  0.18533303  0.91731055     0.36400
C616        C  0.18874586  0.22628798  0.84652391     0.37200
N617        N  0.28340528  0.21456608  0.94091744    -0.43600
N618        N  0.17689882  0.25775046  0.91313354    -0.44100
N619        N  0.18476422  0.23488787  0.83229526    -0.41400
N620        N  0.21203897  0.17706148  0.93186160    -0.42900
H621        H  0.19253830  0.16971371  0.88527812     0.13300
H622        H  0.20616887  0.24136506  0.87787272     0.09800
H623        H  0.24421668  0.20737319  0.91039901     0.10800
H624        H  0.21706028  0.26726842  0.94252640     0.16700
C625        C  0.32376813  0.30165699  0.05520150    -0.01600
C626        C  0.32157800  0.32203492  0.05884381     0.07000
C627        C  0.30913164  0.33321677  0.04662369    -0.07500
C628        C  0.29845062  0.32436890  0.03133570     0.04500
C629        C  0.30050141  0.30390044  0.02773842    -0.14800
C630        C  0.31340502  0.29284138  0.03967026    -0.08100
C631        C  0.33175172  0.33195560  0.07554274     0.05400
C632        C  0.35242137  0.33146197  0.07666216    -0.09200
C633        C  0.36246536  0.34073759  0.09218539     0.00400
C634        C  0.35172838  0.35117393  0.10674353     0.00300
C635        C  0.33104009  0.35171606  0.10545299    -0.12800
C636        C  0.32103865  0.34209840  0.09021740     0.00700
C637        C  0.38372833  0.33963859  0.09240990     0.40000
C638        C  0.29973096  0.34233269  0.09034579     0.36700
C639        C  0.33596750  0.28933010  0.06761410     0.36400
C640        C  0.28578342  0.33679409  0.01950623     0.37200
N641        N  0.40076555  0.33858941  0.09246339    -0.43600
N642        N  0.28266338  0.34250759  0.09043312    -0.44100
N643        N  0.27559045  0.34679235  0.01011395    -0.41400
N644        N  0.34574900  0.27944709  0.07754901    -0.42900
H645        H  0.31508322  0.27711677  0.03717120     0.13300
H646        H  0.30763787  0.34895588  0.04917331     0.09800
H647        H  0.36074192  0.32385548  0.06529600     0.10800
H648        H  0.32253041  0.35932653  0.11667358     0.16700
C649        C  0.33712764  0.41751581  0.18826929    -0.01600
C650        C  0.32658668  0.43175429  0.17730484     0.07000
C651        C  0.32741791  0.43125109  0.15661328    -0.07500
C652        C  0.33840997  0.41672372  0.14679972     0.04500
C653        C  0.34889164  0.40236459  0.15780749    -0.14800
C654        C  0.34819691  0.40311179  0.17849867    -0.08100
C655        C  0.31538217  0.44771988  0.18731361     0.05400
C656        C  0.32571319  0.46091190  0.19941693    -0.09200
C657        C  0.31583390  0.47549602  0.21013401     0.00400
C658        C  0.29505898  0.47717095  0.20879054     0.00300
C659        C  0.28478875  0.46441952  0.19603587    -0.12800
C660        C  0.29475204  0.44972159  0.18538163     0.00700
C661        C  0.32755850  0.48877806  0.22198603     0.40000
C662        C  0.28343957  0.43644927  0.17313988     0.36700
C663        C  0.33636993  0.41704354  0.20958063     0.36400
C664        C  0.33921927  0.41736573  0.12549544     0.37200
N665        N  0.33700948  0.49939575  0.23145121    -0.43600
N666        N  0.27437324  0.42582505  0.16331084    -0.44100
N667        N  0.33989077  0.41791612  0.10842495    -0.41400
N668        N  0.33576042  0.41668256  0.22665538    -0.42900
H669        H  0.35589218  0.39207436  0.18711612     0.13300
H670        H  0.31964032  0.44239182  0.14812738     0.09800
H671        H  0.34162792  0.45968397  0.20059680     0.10800
H672        H  0.26888394  0.46558532  0.19476989     0.16700
C673        C  0.45105519  0.30024570  0.18180599    -0.01600
C674        C  0.45122613  0.32097497  0.18367278     0.07000
C675        C  0.46541011  0.32995818  0.19574946    -0.07500
C676        C  0.47918650  0.31858428  0.20617360     0.04500
C677        C  0.47862813  0.29774811  0.20484874    -0.14800
C678        C  0.46473431  0.28885321  0.19228656    -0.08100
C679        C  0.43574061  0.33334713  0.17440542     0.05400
C680        C  0.42154730  0.34204907  0.18663957    -0.09200
C681        C  0.40539317  0.35213821  0.17864649     0.00400
C682        C  0.40331887  0.35374209  0.15790732     0.00300
C683        C  0.41804333  0.34565502  0.14571669    -0.12800
C684        C  0.43421207  0.33560277  0.15377970     0.00700
C685        C  0.39062080  0.35936293  0.19216788     0.40000
C686        C  0.44901184  0.32767970  0.14066253     0.36700
C687        C  0.43649114  0.29030558  0.16983417     0.36400
C688        C  0.49410049  0.32872064  0.21752778     0.37200
N689        N  0.37894049  0.36492382  0.20330696    -0.43600
N690        N  0.46088778  0.32133538  0.13016122    -0.44100
N691        N  0.50613775  0.33684272  0.22651551    -0.41400
N692        N  0.42483510  0.28237957  0.16019397    -0.42900
H693        H  0.46420491  0.27290118  0.19103222     0.13300
H694        H  0.46564388  0.34591298  0.19707524     0.09800
H695        H  0.42271109  0.34027176  0.20252495     0.10800
H696        H  0.41684017  0.34705232  0.12981688     0.16700
C697        C  0.21622114  0.19334698  0.07691420    -0.01600
C698        C  0.20750090  0.20819353  0.06518382     0.07000
C699        C  0.18731037  0.21221505  0.06748293    -0.07500
C700        C  0.17602148  0.20247774  0.08181086     0.04500
C701        C  0.18486800  0.18796400  0.09399521    -0.14800
C702        C  0.20490845  0.18337225  0.09101684    -0.08100
C703        C  0.21926022  0.22014980  0.05094853     0.05400
C704        C  0.23009647  0.21064493  0.03603902    -0.09200
C705        C  0.24158745  0.22146708  0.02266513     0.00400
C706        C  0.24191220  0.24231205  0.02374461     0.00300
C707        C  0.23087878  0.25178678  0.03848904    -0.12800
C708        C  0.21984664  0.24095789  0.05215560     0.00700
C709        C  0.25236674  0.21080910  0.00767603     0.40000
C710        C  0.20974635  0.25156790  0.06764046     0.36700
C711        C  0.23692854  0.18856840  0.07536723     0.36400
C712        C  0.15542737  0.20766921  0.08340467     0.37200
N713        N  0.26105304  0.20225271  0.99571267    -0.43600
N714        N  0.20163647  0.26006179  0.08004077    -0.44100
N715        N  0.13895067  0.21197315  0.08461824    -0.41400
N716        N  0.25349641  0.18465999  0.07407763    -0.42900
H717        H  0.21204148  0.17233274  0.10016749     0.13300
H718        H  0.18038452  0.22327051  0.05818449     0.09800
H719        H  0.22952703  0.19469351  0.03481024     0.10800
H720        H  0.23113861  0.26776080  0.03957207     0.16700
C721        C  0.21748079  0.61922884  0.31583395    -0.01600
C722        C  0.20719950  0.60521767  0.30441205     0.07000
C723        C  0.18658097  0.60626583  0.30320348    -0.07500
C724        C  0.17619575  0.62156197  0.31238584     0.04500
C725        C  0.18655100  0.63618135  0.32309090    -0.14800
C726        C  0.20712373  0.63447240  0.32511904    -0.08100
C727        C  0.21766911  0.58967075  0.29314539     0.05400
C728        C  0.22847520  0.57529981  0.30337902    -0.09200
C729        C  0.23845582  0.56034351  0.29321765     0.00400
C730        C  0.23748615  0.55949444  0.27234335     0.00300
C731        C  0.22655418  0.57389364  0.26216905    -0.12800
C732        C  0.21684859  0.58899583  0.27234887     0.00700
C733        C  0.24908350  0.54584183  0.30468750     0.40000
C734        C  0.20668601  0.60402510  0.26112787     0.36700
C735        C  0.23872094  0.61887849  0.31740901     0.36400
C736        C  0.15495863  0.62167521  0.31074984     0.37200
N737        N  0.25761924  0.53425840  0.31391091    -0.43600
N738        N  0.19858750  0.61613260  0.25218955    -0.44100
N739        N  0.13794094  0.62165507  0.30941186    -0.41400
N740        N  0.25574087  0.61862080  0.31868282    -0.42900
H741        H  0.21530156  0.64557458  0.33324660     0.13300
H742        H  0.17861466  0.59522018  0.29478535     0.09800
H743        H  0.22901581  0.57573645  0.31938513     0.10800
H744        H  0.22590468  0.57360511  0.24616657     0.16700
C745        C  0.21647085  0.69982763  0.38731741    -0.01600
C746        C  0.20643147  0.71451802  0.39807855     0.07000
C747        C  0.18636579  0.71784696  0.39448442    -0.07500
C748        C  0.17619366  0.70684645  0.38027485     0.04500
C749        C  0.18627627  0.69220191  0.36924572    -0.14800
C750        C  0.20634901  0.68874646  0.37318466    -0.08100
C751        C  0.21668080  0.72681534  0.41292344     0.05400
C752        C  0.21882183  0.74711871  0.40937690    -0.09200
C753        C  0.22896450  0.75914652  0.42277610     0.00400
C754        C  0.23718118  0.75074314  0.43997114     0.00300
C755        C  0.23483416  0.73048204  0.44357958    -0.12800
C756        C  0.22446578  0.71854595  0.43036421     0.00700
C757        C  0.23156847  0.77978107  0.41810475     0.40000
C758        C  0.22162889  0.69797300  0.43519505     0.36700
C759        C  0.23732294  0.69635185  0.38999091     0.36400
C760        C  0.15540769  0.71076906  0.37769370     0.37200
N761        N  0.23373643  0.79630272  0.41433439    -0.43600
N762        N  0.21933799  0.68148798  0.43904497    -0.44100
N763        N  0.13876206  0.71398425  0.37565820    -0.41400
N764        N  0.25402113  0.69353944  0.39215731    -0.42900
H765        H  0.21440411  0.67777935  0.36476039     0.13300
H766        H  0.17862952  0.72908284  0.40286870     0.09800
H767        H  0.21283642  0.75348695  0.39594831     0.10800
H768        H  0.24086488  0.72401887  0.45694802     0.16700
C769        C  0.08797006  0.22475259  0.19501941    -0.01600
C770        C  0.08650650  0.22065390  0.17462799     0.07000
C771        C  0.06991320  0.22737584  0.16414659    -0.07500
C772        C  0.05503597  0.23820005  0.17361720     0.04500
C773        C  0.05654907  0.24225126  0.19400862    -0.14800
C774        C  0.07295844  0.23527753  0.20453473    -0.08100
C775        C  0.10214743  0.20942231  0.16403035     0.05400
C776        C  0.10663205  0.19012155  0.17002657    -0.09200
C777        C  0.12175244  0.17928147  0.16094937     0.00400
C778        C  0.13257164  0.18763556  0.14502678     0.00300
C779        C  0.12773078  0.20698396  0.13899193    -0.12800
C780        C  0.11287560  0.21785558  0.14835927     0.00700
C781        C  0.12583513  0.15990056  0.16881924     0.40000
C782        C  0.10949782  0.23797900  0.14216249     0.36700
C783        C  0.10504368  0.21890873  0.20635867     0.36400
C784        C  0.03797922  0.24420550  0.16232068     0.37200
N785        N  0.12900295  0.14449003  0.17549210    -0.43600
N786        N  0.10681641  0.25412432  0.13725553    -0.44100
N787        N  0.02425949  0.24895085  0.15331243    -0.41400
N788        N  0.11875012  0.21426035  0.21543125    -0.42900
H789        H  0.07424256  0.23841611  0.22019230     0.13300
H790        H  0.06854962  0.22405196  0.14853827     0.09800
H791        H  0.09838627  0.18356699  0.18209028     0.10800
H792        H  0.13585088  0.21399386  0.12713538     0.16700
C793        C  0.91180483  0.31895015  0.29688115    -0.01600
C794        C  0.92656704  0.32989260  0.28713359     0.07000
C795        C  0.92621748  0.35055184  0.28814959    -0.07500
C796        C  0.91156548  0.36040858  0.29888901     0.04500
C797        C  0.89686932  0.34945550  0.30890104    -0.14800
C798        C  0.89728817  0.32874139  0.30780200    -0.08100
C799        C  0.94253414  0.32009089  0.27581652     0.05400
C800        C  0.94343902  0.32275390  0.25529872    -0.09200
C801        C  0.95811036  0.31350478  0.24403366     0.00400
C802        C  0.97228873  0.30134948  0.25339827     0.00300
C803        C  0.97141542  0.29890481  0.27399845    -0.12800
C804        C  0.95683454  0.30825898  0.28522391     0.00700
C805        C  0.95768717  0.31610228  0.22287257     0.40000
C806        C  0.95706969  0.30585434  0.30641880     0.36700
C807        C  0.91088451  0.29770869  0.29536928     0.36400
C808        C  0.91246218  0.38167969  0.29986535     0.37200
N809        N  0.95727108  0.31818201  0.20591238    -0.43600
N810        N  0.95719608  0.30395385  0.32340381    -0.44100
N811        N  0.91333054  0.39872463  0.30057689    -0.41400
N812        N  0.91012126  0.28068934  0.29414086    -0.42900
H813        H  0.88593567  0.32013868  0.31509685     0.13300
H814        H  0.93758406  0.35898765  0.28067879     0.09800
H815        H  0.93243965  0.33185702  0.24803929     0.10800
H816        H  0.98231606  0.28981969  0.28142103     0.16700
C817        C  0.85156439  0.43280327  0.29579726    -0.01600
C818        C  0.83092994  0.43497372  0.29462041     0.07000
C819        C  0.81876021  0.42095840  0.30376255    -0.07500
C820        C  0.82675805  0.40469567  0.31365508     0.04500
C821        C  0.84745062  0.40214332  0.31439119    -0.14800
C822        C  0.85962384  0.41645984  0.30557333    -0.08100
C823        C  0.82151747  0.45109020  0.28313550     0.05400
C824        C  0.82462856  0.45208998  0.26266655    -0.09200
C825        C  0.81426562  0.46565451  0.25096564     0.00400
C826        C  0.80026291  0.47837991  0.25980460     0.00300
C827        C  0.79769206  0.47771990  0.28039349    -0.12800
C828        C  0.80821800  0.46434525  0.29204891     0.00700
C829        C  0.81771715  0.46549180  0.22992282     0.40000
C830        C  0.80517711  0.46452838  0.31315500     0.36700
C831        C  0.86471967  0.44720333  0.28722466     0.36400
C832        C  0.81322912  0.39034725  0.32169521     0.37200
N833        N  0.82056128  0.46533653  0.21307145    -0.43600
N834        N  0.80276274  0.46466614  0.33007055    -0.44100
N835        N  0.80214306  0.37898462  0.32797728    -0.41400
N836        N  0.87525904  0.45875816  0.28036980    -0.42900
H837        H  0.87551275  0.41480591  0.30619495     0.13300
H838        H  0.80286170  0.42245462  0.30266359     0.09800
H839        H  0.83474615  0.44180415  0.25572955     0.10800
H840        H  0.78734860  0.48767674  0.28746983     0.16700
C841        C  0.81810276  0.34141890  0.38250656    -0.01600
C842        C  0.82784507  0.32631700  0.39305029     0.07000
C843        C  0.84745385  0.32181079  0.38828301    -0.07500
C844        C  0.85739998  0.33192984  0.37322969     0.04500
C845        C  0.84766831  0.34713280  0.36256011    -0.14800
C846        C  0.82811042  0.35181652  0.36772489    -0.08100
C847        C  0.81769710  0.31445496  0.40851450     0.05400
C848        C  0.81632934  0.29389591  0.40609513    -0.09200
C849        C  0.80655127  0.28214762  0.42003986     0.00400
C850        C  0.79762479  0.29105024  0.43661478     0.00300
C851        C  0.79927174  0.31155130  0.43918897    -0.12800
C852        C  0.80952350  0.32320388  0.42556758     0.00700
C853        C  0.80525825  0.26115546  0.41660680     0.40000
C854        C  0.81200969  0.34395218  0.42977737     0.36700
C855        C  0.79755322  0.34593500  0.38587697     0.36400
C856        C  0.87758418  0.32632710  0.36935281     0.37200
N857        N  0.80423590  0.24432222  0.41389088    -0.43600
N858        N  0.81398903  0.36057295  0.43317992    -0.44100
N859        N  0.89372769  0.32169981  0.36627176    -0.41400
N860        N  0.78110382  0.34961241  0.38857933    -0.42900
H861        H  0.82027813  0.36326707  0.35979335     0.13300
H862        H  0.85501355  0.31020921  0.39634360     0.09800
H863        H  0.82272718  0.28703789  0.39312071     0.10800
H864        H  0.79284646  0.31845382  0.45213202     0.16700
C865        C  0.92995091  0.20375504  0.14339363    -0.01600
C866        C  0.92869061  0.20785527  0.16376434     0.07000
C867        C  0.91174596  0.20234624  0.17427187    -0.07500
C868        C  0.89597116  0.19313021  0.16468965     0.04500
C869        C  0.89709047  0.18936883  0.14422818    -0.14800
C870        C  0.91412048  0.19469086  0.13376870    -0.08100
C871        C  0.94429986  0.21905433  0.17411504     0.05400
C872        C  0.94755503  0.23874426  0.16873338    -0.09200
C873        C  0.96170205  0.25018656  0.17844598     0.00400
C874        C  0.97296143  0.24184262  0.19400248     0.00300
C875        C  0.96956433  0.22204368  0.19933284    -0.12800
C876        C  0.95540738  0.21066029  0.18954275     0.00700
C877        C  0.96386522  0.27048351  0.17228660     0.40000
C878        C  0.95280944  0.19029438  0.19527842     0.36700
C879        C  0.94739919  0.20856073  0.13216040     0.36400
C880        C  0.87835145  0.18886841  0.17588573     0.37200
N881        N  0.96550628  0.28672791  0.16725003    -0.43600
N882        N  0.95072766  0.17396417  0.19984282    -0.44100
N883        N  0.86418805  0.18556055  0.18482444    -0.41400
N884        N  0.96141521  0.21237857  0.12319457    -0.42900
H885        H  0.91504344  0.19173522  0.11805145     0.13300
H886        H  0.91064444  0.20577097  0.18988091     0.09800
H887        H  0.93880111  0.24525848  0.15699512     0.10800
H888        H  0.97809679  0.21531425  0.21109601     0.16700
C889        C  0.09970091  0.35184881  0.29349172    -0.01600
C890        C  0.10053332  0.33165640  0.28857997     0.07000
C891        C  0.11643967  0.32020598  0.29522400    -0.07500
C892        C  0.13135766  0.32849932  0.30681415     0.04500
C893        C  0.13054009  0.34871902  0.31184677    -0.14800
C894        C  0.11473270  0.36024120  0.30493017    -0.08100
C895        C  0.08480103  0.32195700  0.27689351     0.05400
C896        C  0.08223403  0.32701523  0.25697153    -0.09200
C897        C  0.06808124  0.31741827  0.24531208     0.00400
C898        C  0.05616776  0.30240525  0.25369359     0.00300
C899        C  0.05875358  0.29760280  0.27374445    -0.12800
C900        C  0.07284879  0.30720655  0.28530478     0.00700
C901        C  0.06664020  0.32293033  0.22475756     0.40000
C902        C  0.07461223  0.30188406  0.30588755     0.36700
C903        C  0.08329468  0.36404240  0.28745881     0.36400
C904        C  0.14772021  0.31610173  0.31254617     0.37200
N905        N  0.06554944  0.32738100  0.20828709    -0.43600
N906        N  0.07608335  0.29766898  0.32238551    -0.44100
N907        N  0.16082488  0.30612236  0.31706824    -0.41400
N908        N  0.07009694  0.37376704  0.28265736    -0.42900
H909        H  0.11399877  0.37578623  0.30869173     0.13300
H910        H  0.11719434  0.30470704  0.29126957     0.09800
H911        H  0.09155712  0.33827694  0.25045084     0.10800
H912        H  0.04965674  0.28632607  0.28053782     0.16700
C913        C  0.20746138  0.29605508  0.41584798    -0.01600
C914        C  0.21241168  0.31529996  0.40961140     0.07000
C915        C  0.22832807  0.32497939  0.41860734    -0.07500
C916        C  0.23962254  0.31566748  0.43322626     0.04500
C917        C  0.23522577  0.29601653  0.43893915    -0.14800
C918        C  0.21893344  0.28656487  0.43020307    -0.08100
C919        C  0.20105435  0.32582122  0.39401542     0.05400
C920        C  0.19206806  0.34394503  0.39860855    -0.09200
C921        C  0.18164209  0.35458090  0.38423554     0.00400
C922        C  0.17990684  0.34694165  0.36496361     0.00300
C923        C  0.18879986  0.32884566  0.36035989    -0.12800
C924        C  0.19959521  0.31842521  0.37456398     0.00700
C925        C  0.17241718  0.37298118  0.38973030     0.40000
C926        C  0.20977009  0.30069220  0.36854733     0.36700
C927        C  0.19037083  0.28593104  0.40814188     0.36400
C928        C  0.25516569  0.32697788  0.44242279     0.37200
N929        N  0.16497114  0.38768018  0.39422865    -0.43600
N930        N  0.21790096  0.28648284  0.36367961    -0.44100
N931        N  0.26752322  0.33613734  0.44983985    -0.41400
N932        N  0.17669983  0.27781176  0.40192447    -0.42900
H933        H  0.21506925  0.27166353  0.43458527     0.13300
H934        H  0.23195472  0.33992925  0.41415179     0.09800
H935        H  0.19319822  0.34977274  0.41348235     0.10800
H936        H  0.18785124  0.32316244  0.34541928     0.16700
C937        C  0.23202507  0.44636114  0.28784350    -0.01600
C938        C  0.21136629  0.44814181  0.28921476     0.07000
C939        C  0.20190178  0.46443041  0.28066797    -0.07500
C940        C  0.21273523  0.47883331  0.27060447     0.04500
C941        C  0.23343079  0.47691463  0.26893663    -0.14800
C942        C  0.24289186  0.46077398  0.27784633    -0.08100
C943        C  0.19934469  0.43282050  0.29903024     0.05400
C944        C  0.20037857  0.43073614  0.31959046    -0.09200
C945        C  0.19008492  0.41562753  0.32923847     0.00400
C946        C  0.17842893  0.40229231  0.31815160     0.00300
C947        C  0.17698115  0.40495779  0.29757577    -0.12800
C948        C  0.18738814  0.41994126  0.28799762     0.00700
C949        C  0.19171352  0.41439980  0.35045289     0.40000
C950        C  0.18637948  0.42119817  0.26672391     0.36700
C951        C  0.24226784  0.42955077  0.29603339     0.36400
C952        C  0.20236384  0.49581203  0.26291513     0.37200
N953        N  0.19319505  0.41361249  0.36745914    -0.43600
N954        N  0.18565657  0.42216675  0.24967572    -0.44100
N955        N  0.19406744  0.50947066  0.25686071    -0.41400
N956        N  0.25042985  0.41603771  0.30257121    -0.42900
H957        H  0.25877037  0.45921024  0.27665256     0.13300
H958        H  0.18601445  0.46587585  0.28191474     0.09800
H959        H  0.20947157  0.44081809  0.32807132     0.10800
H960        H  0.16832870  0.39481236  0.28873101     0.16700
C961        C  0.19426483  0.33364789  0.57176395    -0.01600
C962        C  0.21460866  0.32928280  0.57136097     0.07000
C963        C  0.22671351  0.33584918  0.58683972    -0.07500
C964        C  0.21875608  0.34619264  0.60286268     0.04500
C965        C  0.19832468  0.35009593  0.60349805    -0.14800
C966        C  0.18627438  0.34376876  0.58788834    -0.08100
C967        C  0.22366053  0.31810267  0.55486195     0.05400
C968        C  0.23787919  0.32746947  0.54315428    -0.09200
C969        C  0.24691914  0.31757304  0.52744284     0.00400
C970        C  0.24170868  0.29776159  0.52319337     0.00300
C971        C  0.22748546  0.28841398  0.53508023    -0.12800
C972        C  0.21860801  0.29830980  0.55088222     0.00700
C973        C  0.26120314  0.32835408  0.51587712     0.40000
C974        C  0.20480499  0.28765663  0.56314167     0.36700
C975        C  0.18138795  0.32818801  0.55567575     0.36400
C976        C  0.23164183  0.35162049  0.61895182     0.37200
N977        N  0.27266124  0.33704519  0.50666855    -0.43600
N978        N  0.19371803  0.27911791  0.57292857    -0.44100
N979        N  0.24194122  0.35590299  0.63189136    -0.41400
N980        N  0.17108797  0.32376989  0.54278326    -0.42900
H981        H  0.17056872  0.34681085  0.58828324     0.13300
H982        H  0.24236657  0.33253811  0.58656141     0.09800
H983        H  0.24183284  0.34267340  0.54625538     0.10800
H984        H  0.22349419  0.27317006  0.53227467     0.16700
C985        C  0.20971724  0.41756549  0.68338790    -0.01600
C986        C  0.21073944  0.43576218  0.67337805     0.07000
C987        C  0.20412969  0.43713970  0.65380199    -0.07500
C988        C  0.19657175  0.42054851  0.64408246     0.04500
C989        C  0.19570797  0.40231353  0.65405734    -0.14800
C990        C  0.20208133  0.40104210  0.67372065    -0.08100
C991        C  0.21986477  0.45317436  0.68270959     0.05400
C992        C  0.23952179  0.45742011  0.67821244    -0.09200
C993        C  0.24931227  0.47303759  0.68742318     0.00400
C994        C  0.23920253  0.48493163  0.70135916     0.00300
C995        C  0.21934309  0.48069686  0.70563610    -0.12800
C996        C  0.20965314  0.46493516  0.69644945     0.00700
C997        C  0.26995130  0.47573725  0.68289020     0.40000
C998        C  0.18931100  0.46102051  0.70137045     0.36700
C999        C  0.21687182  0.41542592  0.70336805     0.36400
C1000       C  0.18908799  0.42273650  0.62424346     0.37200
N1001       N  0.28650136  0.47777810  0.67924605    -0.43600
N1002       N  0.17300583  0.45789428  0.70532763    -0.44100
N1003       N  0.18296009  0.42454918  0.60839214    -0.41400
N1004       N  0.22265274  0.41368607  0.71935811    -0.42900
H1005       H  0.20134151  0.38701967  0.68143393     0.13300
H1006       H  0.20492173  0.45118144  0.64614202     0.09800
H1007       H  0.24738003  0.44815247  0.66777798     0.10800
H1008       H  0.21137320  0.48964262  0.71624967     0.16700
C1009       C  0.32723769  0.22151239  0.58962171    -0.01600
C1010       C  0.32619995  0.21045876  0.57201074     0.07000
C1011       C  0.33465222  0.19156645  0.57133183    -0.07500
C1012       C  0.34403446  0.18360303  0.58797983     0.04500
C1013       C  0.34477821  0.19455920  0.60566526    -0.14800
C1014       C  0.33651294  0.21351890  0.60625238    -0.08100
C1015       C  0.31679757  0.21872637  0.55406604     0.05400
C1016       C  0.32603066  0.23442946  0.54432514    -0.09200
C1017       C  0.31703025  0.24377160  0.52823402     0.00400
C1018       C  0.29824459  0.23735673  0.52157540     0.00300
C1019       C  0.28939325  0.22109750  0.53105992    -0.12800
C1020       C  0.29847103  0.21182832  0.54717308     0.00700
C1021       C  0.32744766  0.26003522  0.51923005     0.40000
C1022       C  0.28834252  0.19581999  0.55693618     0.36700
C1023       C  0.31856770  0.24093582  0.59103250     0.36400
C1024       C  0.35384911  0.16478388  0.58620972     0.37200
N1025       N  0.33587808  0.27307008  0.51210548    -0.43600
N1026       N  0.28022312  0.18301281  0.56479467    -0.44100
N1027       N  0.36196435  0.14983815  0.58461982    -0.41400
N1028       N  0.31160389  0.25649687  0.59210577    -0.42900
H1029       H  0.33708620  0.22199155  0.61983126     0.13300
H1030       H  0.33420832  0.18321253  0.55767868     0.09800
H1031       H  0.34022438  0.23963229  0.54958914     0.10800
H1032       H  0.27506985  0.21586005  0.52624022     0.16700
C1033       C  0.44338273  0.23320690  0.70760352    -0.01600
C1034       C  0.44233439  0.23083652  0.68694551     0.07000
C1035       C  0.45719499  0.23891958  0.67501726    -0.07500
C1036       C  0.47310823  0.24910410  0.68339965     0.04500
C1037       C  0.47434499  0.25115601  0.70412535    -0.14800
C1038       C  0.45944529  0.24304411  0.71600941    -0.08100
C1039       C  0.42568024  0.22029031  0.67745469     0.05400
C1040       C  0.41268739  0.23094384  0.66539869    -0.09200
C1041       C  0.39659078  0.22168769  0.65633792     0.00400
C1042       C  0.39336929  0.20120062  0.65918301     0.00300
C1043       C  0.40652771  0.19060090  0.67127486    -0.12800
C1044       C  0.42260581  0.19991328  0.68028593     0.00700
C1045       C  0.38334512  0.23384787  0.64487315     0.40000
C1046       C  0.43600626  0.18818979  0.69202452     0.36700
C1047       C  0.42778334  0.22636154  0.72039690     0.36400
C1048       C  0.48819809  0.25674479  0.67044953     0.37200
N1049       N  0.37278812  0.24369533  0.63572678    -0.43600
N1050       N  0.44674436  0.17884086  0.70147384    -0.44100
N1051       N  0.50026046  0.26283159  0.66001100    -0.41400
N1052       N  0.41525351  0.22094180  0.73064938    -0.42900
H1053       H  0.46005663  0.24489345  0.73191216     0.13300
H1054       H  0.45637968  0.23717020  0.65911416     0.09800
H1055       H  0.41499647  0.24665295  0.66330122     0.10800
H1056       H  0.40445735  0.17488251  0.67348243     0.16700
C1057       C  0.21149154  0.11781969  0.15329879    -0.01600
C1058       C  0.20062148  0.10109558  0.15920394     0.07000
C1059       C  0.18020277  0.10052782  0.15577397    -0.07500
C1060       C  0.17054145  0.11646039  0.14671694     0.04500
C1061       C  0.18141609  0.13331247  0.14111495    -0.14800
C1062       C  0.20188518  0.13362192  0.14418535    -0.08100
C1063       C  0.21022255  0.08468164  0.17003723     0.05400
C1064       C  0.20573400  0.08204622  0.19006077    -0.09200
C1065       C  0.21589011  0.06813458  0.20150384     0.00400
C1066       C  0.23082991  0.05641551  0.19278319     0.00300
C1067       C  0.23486280  0.05876308  0.17254075    -0.12800
C1068       C  0.22468480  0.07266847  0.16115907     0.00700
C1069       C  0.21126156  0.06700097  0.22228446     0.40000
C1070       C  0.22937303  0.07438851  0.14042585     0.36700
C1071       C  0.23236408  0.11949114  0.15724322     0.36400
C1072       C  0.14970319  0.11485989  0.14266430     0.37200
N1073       N  0.20753041  0.06619491  0.23894194    -0.43600
N1074       N  0.23320684  0.07577379  0.12383112    -0.44100
N1075       N  0.13302222  0.11346697  0.13931059    -0.41400
N1076       N  0.24908468  0.12080475  0.16041649    -0.42900
H1077       H  0.21033908  0.14656324  0.14001821     0.13300
H1078       H  0.17183120  0.08763429  0.16022498     0.09800
H1079       H  0.19469012  0.09138439  0.19692609     0.10800
H1080       H  0.24604223  0.04971023  0.16552658     0.16700
C1081       C  0.30714522  0.96342805  0.28350157    -0.01600
C1082       C  0.31684502  0.94788526  0.27364503     0.07000
C1083       C  0.31530926  0.94631062  0.25306799    -0.07500
C1084       C  0.30421233  0.95995782  0.24223603     0.04500
C1085       C  0.29440397  0.97550698  0.25211336    -0.14800
C1086       C  0.29595527  0.97701353  0.27272166    -0.08100
C1087       C  0.32765442  0.93247757  0.28472893     0.05400
C1088       C  0.31698535  0.92020996  0.29747464    -0.09200
C1089       C  0.32641097  0.90550317  0.30842780     0.00400
C1090       C  0.34708964  0.90294810  0.30677808     0.00300
C1091       C  0.35768535  0.91509697  0.29369256    -0.12800
C1092       C  0.34814892  0.92975787  0.28268151     0.00700
C1093       C  0.31424117  0.89284285  0.32051954     0.40000
C1094       C  0.35971678  0.94206038  0.26968380     0.36700
C1095       C  0.30876465  0.96587826  0.30462625     0.36400
C1096       C  0.30235304  0.95706477  0.22118314     0.37200
N1097       N  0.30444414  0.88270559  0.33016374    -0.43600
N1098       N  0.36898431  0.95188968  0.25923401    -0.44100
N1099       N  0.30079463  0.95470505  0.20432731    -0.41400
N1100       N  0.31012667  0.96777776  0.32155489    -0.42900
H1101       H  0.28863161  0.98900013  0.28040087     0.13300
H1102       H  0.32247915  0.93414441  0.24552201     0.09800
H1103       H  0.30113501  0.92205795  0.29871745     0.10800
H1104       H  0.37350894  0.91329302  0.29218838     0.16700
C1105       C  0.41628848  0.84158576  0.28134585    -0.01600
C1106       C  0.43190192  0.83391806  0.29275780     0.07000
C1107       C  0.43187420  0.83653061  0.31327204    -0.07500
C1108       C  0.41645823  0.84657871  0.32256406     0.04500
C1109       C  0.40085324  0.85443712  0.31112135    -0.14800
C1110       C  0.40103992  0.85190688  0.29055296    -0.08100
C1111       C  0.44868739  0.82368065  0.28340626     0.05400
C1112       C  0.46062042  0.83429813  0.27030458    -0.09200
C1113       C  0.47615973  0.82511858  0.26040592     0.00400
C1114       C  0.47992834  0.80482523  0.26359889     0.00300
C1115       C  0.46834647  0.79440644  0.27730249    -0.12800
C1116       C  0.45279869  0.80365177  0.28718652     0.00700
C1117       C  0.48812095  0.83707105  0.24743705     0.40000
C1118       C  0.44090168  0.79215218  0.30062339     0.36700
C1119       C  0.41528866  0.83848909  0.26026274     0.36400
C1120       C  0.41736696  0.84902226  0.34373416     0.37200
N1121       N  0.49764048  0.84675862  0.23708540    -0.43600
N1122       N  0.43140825  0.78294468  0.31143082    -0.44100
N1123       N  0.41811954  0.85090590  0.36070468    -0.41400
N1124       N  0.41447811  0.83594601  0.24338334    -0.42900
H1125       H  0.38896367  0.85754334  0.28167251     0.13300
H1126       H  0.44401730  0.83080453  0.32200757     0.09800
H1127       H  0.45768172  0.84983878  0.26775319     0.10800
H1128       H  0.47109269  0.77885362  0.27994629     0.16700
C1129       C  0.33943809  0.82734349  0.37908873    -0.01600
C1130       C  0.33065173  0.83882883  0.39401599     0.07000
C1131       C  0.33227968  0.85945173  0.39343698    -0.07500
C1132       C  0.34216470  0.86876684  0.37790350     0.04500
C1133       C  0.35079874  0.85726367  0.36284704    -0.14800
C1134       C  0.34959316  0.83661038  0.36377915    -0.08100
C1135       C  0.31942805  0.82950415  0.41015331     0.05400
C1136       C  0.32946833  0.81750240  0.42367431    -0.09200
C1137       C  0.31926364  0.80766852  0.43863835     0.00400
C1138       C  0.29856505  0.80978853  0.44011436     0.00300
C1139       C  0.28863659  0.82220628  0.42678646    -0.12800
C1140       C  0.29888377  0.83201666  0.41184280     0.00700
C1141       C  0.33051508  0.79606120  0.45255806     0.40000
C1142       C  0.28796210  0.84406840  0.39804026     0.36700
C1143       C  0.33739039  0.80612311  0.37865098     0.36400
C1144       C  0.34357376  0.89003153  0.37796852     0.37200
N1145       N  0.33955543  0.78682153  0.46374052    -0.43600
N1146       N  0.27925562  0.85375290  0.38697226    -0.44100
N1147       N  0.34471086  0.90707531  0.37805930    -0.41400
N1148       N  0.33566695  0.78913398  0.37824615    -0.42900
H1149       H  0.35594035  0.82769518  0.35208922     0.13300
H1150       H  0.32565631  0.86824760  0.40505957     0.09800
H1151       H  0.34533602  0.81581081  0.42247027     0.10800
H1152       H  0.27276079  0.82393455  0.42776393     0.16700
C1153       C  0.18346131  0.92365583  0.16322957    -0.01600
C1154       C  0.20412959  0.92582792  0.16371805     0.07000
C1155       C  0.21607051  0.91145616  0.15488311    -0.07500
C1156       C  0.20777516  0.89499712  0.14563384     0.04500
C1157       C  0.18702500  0.89267045  0.14520756    -0.14800
C1158       C  0.17509392  0.90711224  0.15411060    -0.08100
C1159       C  0.21372292  0.94251977  0.17406659     0.05400
C1160       C  0.21164658  0.94407327  0.19459737    -0.09200
C1161       C  0.22132199  0.95895280  0.20514442     0.00400
C1162       C  0.23330628  0.97274709  0.19500996     0.00300
C1163       C  0.23531932  0.97110963  0.17441248    -0.12800
C1164       C  0.22568627  0.95617419  0.16393299     0.00700
C1165       C  0.21934854  0.95903972  0.22638127     0.40000
C1166       C  0.22812890  0.95526699  0.14276811     0.36700
C1167       C  0.17058710  0.93841128  0.17163116     0.36400
C1168       C  0.22102363  0.88036269  0.13758647     0.37200
N1169       N  0.21779222  0.95900914  0.24340187    -0.43600
N1170       N  0.23011749  0.95450709  0.12581289    -0.44100
N1171       N  0.23167094  0.86865854  0.13115548    -0.41400
N1172       N  0.16030536  0.95028383  0.17833743    -0.42900
H1173       H  0.15917379  0.90557964  0.15377675     0.13300
H1174       H  0.23199029  0.91296207  0.15553087     0.09800
H1175       H  0.20275500  0.93332287  0.20245398     0.10800
H1176       H  0.24438376  0.98159369  0.16640697     0.16700
C1177       C  0.29278916  0.09056548  0.26760056    -0.01600
C1178       C  0.31279809  0.08792372  0.27267454     0.07000
C1179       C  0.32252735  0.07052635  0.26709581    -0.07500
C1180       C  0.31257686  0.05578340  0.25660282     0.04500
C1181       C  0.29257453  0.05845630  0.25150270    -0.14800
C1182       C  0.28281580  0.07579580  0.25718110    -0.08100
C1183       C  0.32361307  0.10283612  0.28442506     0.05400
C1184       C  0.31811009  0.10595461  0.30410321    -0.09200
C1185       C  0.32773565  0.12003067  0.31575680     0.00400
C1186       C  0.34320383  0.13153994  0.30758116     0.00300
C1187       C  0.34889774  0.12795003  0.28788285    -0.12800
C1188       C  0.33929853  0.11376903  0.27635598     0.00700
C1189       C  0.32152456  0.12186917  0.33607017     0.40000
C1190       C  0.34542728  0.11107486  0.25611186     0.36700
C1191       C  0.28232907  0.10843817  0.27263585     0.36400
C1192       C  0.32280398  0.03757354  0.25231816     0.37200
N1193       N  0.31647635  0.12323749  0.35233869    -0.43600
N1194       N  0.35034715  0.10890117  0.23989520    -0.44100
N1195       N  0.33091646  0.02290198  0.24904208    -0.41400
N1196       N  0.27396425  0.12278015  0.27664352    -0.42900
H1197       H  0.26742820  0.07787100  0.25328912     0.13300
H1198       H  0.33781400  0.06832923  0.27129492     0.09800
H1199       H  0.30623803  0.09725398  0.31039574     0.10800
H1200       H  0.36066140  0.13649201  0.28121617     0.16700
C1201       C  0.41141622  0.21304801  0.30362055    -0.01600
C1202       C  0.42605574  0.20299650  0.29280509     0.07000
C1203       C  0.42558629  0.18230992  0.29181167    -0.07500
C1204       C  0.41046643  0.17160702  0.30093368     0.04500
C1205       C  0.39562662  0.18169860  0.31154224    -0.14800
C1206       C  0.39650539  0.20237165  0.31298845    -0.08100
C1207       C  0.44189472  0.21383066  0.28234322     0.05400
C1208       C  0.45488970  0.22560794  0.29329501    -0.09200
C1209       C  0.46990123  0.23625290  0.28398821     0.00400
C1210       C  0.47225441  0.23496789  0.26324912     0.00300
C1211       C  0.45929318  0.22301108  0.25234977    -0.12800
C1212       C  0.44410941  0.21261401  0.26167924     0.00700
C1213       C  0.48294572  0.24784088  0.29623768     0.40000
C1214       C  0.43061384  0.20127381  0.24970206     0.36700
C1215       C  0.41086398  0.23434048  0.30461145     0.36400
C1216       C  0.41080819  0.15034568  0.29948286     0.37200
N1217       N  0.49335647  0.25713849  0.30608101    -0.43600
N1218       N  0.41974396  0.19218621  0.24016945    -0.44100
N1219       N  0.41110587  0.13330777  0.29827598    -0.41400
N1220       N  0.41038117  0.25139789  0.30539326    -0.42900
H1221       H  0.38510574  0.21033224  0.32091723     0.13300
H1222       H  0.43702875  0.17452939  0.28376675     0.09800
H1223       H  0.45331502  0.22641389  0.30921916     0.10800
H1224       H  0.46082051  0.22201169  0.23643813     0.16700
C1225       C  0.31606025  0.23357587  0.40889024    -0.01600
C1226       C  0.31322001  0.21304531  0.40697457     0.07000
C1227       C  0.30064247  0.20327550  0.42016997    -0.07500
C1228       C  0.29075680  0.21362302  0.43505210     0.04500
C1229       C  0.29349692  0.23424701  0.43697573    -0.14800
C1230       C  0.30628110  0.24394292  0.42382045    -0.08100
C1231       C  0.32337369  0.20145462  0.39143232     0.05400
C1232       C  0.34404126  0.20084153  0.39125707    -0.09200
C1233       C  0.35420644  0.19062369  0.37648127     0.00400
C1234       C  0.34356932  0.18056165  0.36157636     0.00300
C1235       C  0.32285751  0.18060218  0.36224199    -0.12800
C1236       C  0.31273728  0.19104343  0.37688375     0.00700
C1237       C  0.37550063  0.19051569  0.37723303     0.40000
C1238       C  0.29145813  0.19158956  0.37613835     0.36700
C1239       C  0.32858826  0.24440361  0.39546194     0.36400
C1240       C  0.27849661  0.20249348  0.44846268     0.37200
N1241       N  0.39256085  0.19049083  0.37785369    -0.43600
N1242       N  0.27440662  0.19205132  0.37553534    -0.44100
N1243       N  0.26870984  0.19349915  0.45918747    -0.41400
N1244       N  0.33865637  0.25307467  0.38473150    -0.42900
H1245       H  0.30849905  0.25975058  0.42503726     0.13300
H1246       H  0.29868025  0.18743307  0.41891467     0.09800
H1247       H  0.35225444  0.20850302  0.40267132     0.10800
H1248       H  0.31449002  0.17309043  0.35084666     0.16700
C1249       C  0.57207374  0.22106430  0.29546598    -0.01600
C1250       C  0.58493623  0.20820037  0.28534893     0.07000
C1251       C  0.58218935  0.20503674  0.26509821    -0.07500
C1252       C  0.56759012  0.21518094  0.25460291     0.04500
C1253       C  0.55540816  0.22904292  0.26443576    -0.14800
C1254       C  0.55762897  0.23150176  0.28495423    -0.08100
C1255       C  0.60233044  0.19897258  0.29496993     0.05400
C1256       C  0.60419748  0.17830765  0.29497861    -0.09200
C1257       C  0.62151763  0.16918559  0.30173315     0.00400
C1258       C  0.63739276  0.18087380  0.30841132     0.00300
C1259       C  0.63522954  0.20149108  0.30892672    -0.12800
C1260       C  0.61801433  0.21058701  0.30219462     0.00700
C1261       C  0.62235533  0.14790492  0.30230195     0.40000
C1262       C  0.61726842  0.23189967  0.30195066     0.36700
C1263       C  0.57338992  0.22374094  0.31658448     0.36400
C1264       C  0.56619364  0.21158153  0.23363318     0.37200
N1265       N  0.62297248  0.13084232  0.30288646    -0.43600
N1266       N  0.61668137  0.24897279  0.30186646    -0.44100
N1267       N  0.56513434  0.20857838  0.21684270    -0.41400
N1268       N  0.57443256  0.22590677  0.33350541    -0.42900
H1269       H  0.54810347  0.24166943  0.29283096     0.13300
H1270       H  0.59199606  0.19506890  0.25729517     0.09800
H1271       H  0.59215315  0.16931822  0.28949128     0.10800
H1272       H  0.64732423  0.21064078  0.31404382     0.16700
C1273       C  0.69016193  0.20515665  0.38236757    -0.01600
C1274       C  0.71074717  0.20540596  0.38486116     0.07000
C1275       C  0.72278892  0.19523269  0.37148498    -0.07500
C1276       C  0.71462379  0.18505709  0.35546747     0.04500
C1277       C  0.69389275  0.18484396  0.35281063    -0.14800
C1278       C  0.68194698  0.19497651  0.36647019    -0.08100
C1279       C  0.71996007  0.21544068  0.40186671     0.05400
C1280       C  0.72935604  0.20386324  0.41616469    -0.09200
C1281       C  0.73816669  0.21255035  0.43263423     0.00400
C1282       C  0.73743595  0.23328649  0.43506583     0.00300
C1283       C  0.72784790  0.24484709  0.42076126    -0.12800
C1284       C  0.71938519  0.23611983  0.40407623     0.00700
C1285       C  0.74763328  0.19973140  0.44681582     0.40000
C1286       C  0.71094148  0.24867192  0.38903958     0.36700
C1287       C  0.67715299  0.21487341  0.39618135     0.36400
C1288       C  0.72802856  0.17568767  0.34181453     0.37200
N1289       N  0.75528359  0.18938338  0.45806191    -0.43600
N1290       N  0.70424279  0.25871567  0.37694003    -0.44100
N1291       N  0.73896594  0.16830430  0.33097370    -0.41400
N1292       N  0.66676990  0.22273044  0.40722967    -0.42900
H1293       H  0.66603181  0.19485985  0.36487640     0.13300
H1294       H  0.73866533  0.19541351  0.37350549     0.09800
H1295       H  0.72976589  0.18794472  0.41443020     0.10800
H1296       H  0.72760620  0.26078869  0.42223165     0.16700
C1297       C  0.33234447  0.60885411  0.16586759    -0.01600
C1298       C  0.32642567  0.60930657  0.18581425     0.07000
C1299       C  0.33012044  0.62616743  0.19722835    -0.07500
C1300       C  0.33917907  0.64272425  0.18888833     0.04500
C1301       C  0.34464024  0.64245133  0.16880086    -0.14800
C1302       C  0.34118882  0.62548245  0.15746341    -0.08100
C1303       C  0.31604533  0.59249476  0.19502967     0.05400
C1304       C  0.32546741  0.58199580  0.21013487    -0.09200
C1305       C  0.31603698  0.56624795  0.21957770     0.00400
C1306       C  0.29668002  0.56078517  0.21384623     0.00300
C1307       C  0.28735378  0.57141677  0.19861373    -0.12800
C1308       C  0.29677921  0.58722998  0.18933145     0.00700
C1309       C  0.32674907  0.55605206  0.23494224     0.40000
C1310       C  0.28615410  0.59826481  0.17447819     0.36700
C1311       C  0.32972242  0.59142452  0.15388139     0.36400
C1312       C  0.34168596  0.66015834  0.20089426     0.37200
N1313       N  0.33539325  0.54797511  0.24727924    -0.43600
N1314       N  0.27765776  0.60713044  0.16258944    -0.44100
N1315       N  0.34362597  0.67417790  0.21045670    -0.41400
N1316       N  0.32762735  0.57743074  0.14431494    -0.42900
H1317       H  0.34551351  0.62520705  0.14204157     0.13300
H1318       H  0.32551583  0.62651801  0.21256509     0.09800
H1319       H  0.34028078  0.58615331  0.21454549     0.10800
H1320       H  0.27245338  0.56766781  0.19416088     0.16700
C1321       C  0.41270125  0.70573602  0.19523799    -0.01600
C1322       C  0.42688206  0.71484397  0.18306108     0.07000
C1323       C  0.42479442  0.71394398  0.16250536    -0.07500
C1324       C  0.40872820  0.70428691  0.15392663     0.04500
C1325       C  0.39439984  0.69517975  0.16609396    -0.14800
C1326       C  0.39669200  0.69590072  0.18670262    -0.08100
C1327       C  0.44413157  0.72525937  0.19143736     0.05400
C1328       C  0.45832024  0.71439748  0.20187404    -0.09200
C1329       C  0.47486493  0.72368617  0.20999164     0.00400
C1330       C  0.47737493  0.74427636  0.20763674     0.00300
C1331       C  0.46329207  0.75502330  0.19683898    -0.12800
C1332       C  0.44672824  0.74572641  0.18883459     0.00700
C1333       C  0.48923970  0.71161433  0.22010313     0.40000
C1334       C  0.43227887  0.75757770  0.17856199     0.36700
C1335       C  0.41395392  0.70685710  0.21649713     0.36400
C1336       C  0.40776695  0.70344224  0.13263091     0.37200
N1337       N  0.50075983  0.70189886  0.22815816    -0.43600
N1338       N  0.42068449  0.76706702  0.17034844    -0.44100
N1339       N  0.40702224  0.70279522  0.11556689    -0.41400
N1340       N  0.41496463  0.70782241  0.23352994    -0.42900
H1341       H  0.38572322  0.68914003  0.19619432     0.13300
H1342       H  0.43585151  0.72075010  0.15313973     0.09800
H1343       H  0.45647712  0.69858193  0.20358420     0.10800
H1344       H  0.46494917  0.77084891  0.19505293     0.16700
C1345       C  0.62339282  0.31056601  0.17041682    -0.01600
C1346       C  0.60667831  0.32141828  0.17627235     0.07000
C1347       C  0.60593679  0.34180000  0.17285113    -0.07500
C1348       C  0.62164576  0.35146693  0.16356425     0.04500
C1349       C  0.63835922  0.34055961  0.15751641    -0.14800
C1350       C  0.63896986  0.32013727  0.16091245    -0.08100
C1351       C  0.59012825  0.31172564  0.18656302     0.05400
C1352       C  0.58860114  0.31386175  0.20704671    -0.09200
C1353       C  0.57399006  0.30387027  0.21763406     0.00400
C1354       C  0.56050675  0.29146928  0.20755780     0.00300
C1355       C  0.56201622  0.28958333  0.18693389    -0.12800
C1356       C  0.57661535  0.29966369  0.17640726     0.00700
C1357       C  0.57375451  0.30614109  0.23883867     0.40000
C1358       C  0.57736372  0.29761029  0.15519580     0.36700
C1359       C  0.62509260  0.28973443  0.17461983     0.36400
C1360       C  0.61995603  0.37239346  0.15983788     0.37200
N1361       N  0.57363897  0.30799388  0.25582841    -0.43600
N1362       N  0.57792840  0.29602011  0.13819033    -0.44100
N1363       N  0.61859532  0.38915816  0.15683023    -0.41400
N1364       N  0.62642078  0.27306909  0.17813492    -0.42900
H1365       H  0.65184945  0.31171520  0.15653839     0.13300
H1366       H  0.59304914  0.35012041  0.17741677     0.09800
H1367       H  0.59914559  0.32306528  0.21481972     0.10800
H1368       H  0.55163479  0.28038508  0.17895197     0.16700
C1369       C  0.69888314  0.41052929  0.18436221    -0.01600
C1370       C  0.70614756  0.42615779  0.17268479     0.07000
C1371       C  0.70414542  0.42530250  0.15209116    -0.07500
C1372       C  0.69501533  0.40913846  0.14303125     0.04500
C1373       C  0.68758654  0.39355771  0.15473461    -0.14800
C1374       C  0.68943694  0.39457135  0.17535882    -0.08100
C1375       C  0.71665956  0.44306670  0.18166197     0.05400
C1376       C  0.73668290  0.44577693  0.17728936    -0.09200
C1377       C  0.74759372  0.46068990  0.18649774     0.00400
C1378       C  0.73838242  0.47312017  0.20051321     0.00300
C1379       C  0.71815798  0.47071449  0.20437318    -0.12800
C1380       C  0.70723909  0.45600180  0.19494194     0.00700
C1381       C  0.76828906  0.46235058  0.18175438     0.40000
C1382       C  0.68635910  0.45461981  0.19893238     0.36700
C1383       C  0.70178234  0.41010388  0.20549880     0.36400
C1384       C  0.69307275  0.40915092  0.12179633     0.37200
N1385       N  0.78485936  0.46367240  0.17788024    -0.43600
N1386       N  0.66963500  0.45351853  0.20215522    -0.44100
N1387       N  0.69153139  0.40919186  0.10477466    -0.41400
N1388       N  0.70416391  0.40981363  0.22242162    -0.42900
H1389       H  0.68410332  0.38251120  0.18444562     0.13300
H1390       H  0.70979234  0.43728581  0.14309376     0.09800
H1391       H  0.74390787  0.43589387  0.16697036     0.10800
H1392       H  0.71076969  0.48047911  0.21468796     0.16700
C1393       C  0.83164808  0.19196510  0.05888659    -0.01600
C1394       C  0.83017614  0.21272261  0.05861943     0.07000
C1395       C  0.83853174  0.22371531  0.07402400    -0.07500
C1396       C  0.84792207  0.21432574  0.08983580     0.04500
C1397       C  0.84903631  0.19347373  0.09033634    -0.14800
C1398       C  0.84100742  0.18254988  0.07467821    -0.08100
C1399       C  0.81860701  0.22313418  0.04327684     0.05400
C1400       C  0.79840696  0.21906942  0.04175084    -0.09200
C1401       C  0.78664064  0.22878862  0.02788569     0.00400
C1402       C  0.79513852  0.24302477  0.01517322     0.00300
C1403       C  0.81539304  0.24720949  0.01690057    -0.12800
C1404       C  0.82713201  0.23741367  0.03079330     0.00700
C1405       C  0.76582967  0.22425804  0.02764507     0.40000
C1406       C  0.84790589  0.24202586  0.03176296     0.36700
C1407       C  0.82361000  0.18003059  0.04315673     0.36400
C1408       C  0.85508708  0.22643618  0.10585854     0.37200
N1409       N  0.74915804  0.22060003  0.02752438    -0.43600
N1410       N  0.86454272  0.24575302  0.03258040    -0.44100
N1411       N  0.86077511  0.23615873  0.11870383    -0.41400
N1412       N  0.81710421  0.17048374  0.03057499    -0.42900
H1413       H  0.84197774  0.16658826  0.07480773     0.13300
H1414       H  0.83709920  0.23966607  0.07401761     0.09800
H1415       H  0.79175202  0.20839452  0.05166518     0.10800
H1416       H  0.82215544  0.25806068  0.00726785     0.16700
C1417       C  0.70763895  0.29956372  0.04335632    -0.01600
C1418       C  0.71649169  0.31480171  0.05438543     0.07000
C1419       C  0.73506463  0.32188689  0.04870590    -0.07500
C1420       C  0.74476564  0.31430239  0.03211902     0.04500
C1421       C  0.73580036  0.29917817  0.02076422    -0.14800
C1422       C  0.71726387  0.29195029  0.02673749    -0.08100
C1423       C  0.70661729  0.32374026  0.07179282     0.05400
C1424       C  0.70227075  0.31190419  0.08824817    -0.09200
C1425       C  0.69326014  0.31997461  0.10501120     0.00400
C1426       C  0.68882705  0.34034100  0.10557675     0.00300
C1427       C  0.69327649  0.35216620  0.08917338    -0.12800
C1428       C  0.70186239  0.34401381  0.07227331     0.00700
C1429       C  0.68942808  0.30721048  0.12166505     0.40000
C1430       C  0.70507435  0.35659985  0.05536296     0.36700
C1431       C  0.68851659  0.29176285  0.04856687     0.36400
C1432       C  0.76402081  0.32216904  0.02754040     0.37200
N1433       N  0.68635732  0.29697292  0.13500111    -0.43600
N1434       N  0.70759697  0.36662463  0.04175589    -0.44100
N1435       N  0.77945643  0.32853643  0.02399230    -0.41400
N1436       N  0.67322631  0.28547406  0.05280681    -0.42900
H1437       H  0.71015668  0.28029971  0.01838429     0.13300
H1438       H  0.74204698  0.33340757  0.05736213     0.09800
H1439       H  0.70608366  0.29635518  0.08803630     0.10800
H1440       H  0.68966429  0.36776183  0.08941580     0.16700
C1441       C  0.68918184  0.33519695  0.87866334    -0.01600
C1442       C  0.70948469  0.33162563  0.88139735     0.07000
C1443       C  0.72285120  0.33780599  0.86680435    -0.07500
C1444       C  0.71638256  0.34794902  0.84997229     0.04500
C1445       C  0.69605162  0.35180088  0.84736501    -0.14800
C1446       C  0.68266771  0.34508582  0.86173853    -0.08100
C1447       C  0.71716540  0.32183864  0.89950244     0.05400
C1448       C  0.71071542  0.30276691  0.90438404    -0.09200
C1449       C  0.71814855  0.29289638  0.92099868     0.00400
C1450       C  0.73278435  0.30200975  0.93285271     0.00300
C1451       C  0.73875124  0.32133477  0.92816277    -0.12800
C1452       C  0.73103341  0.33126999  0.91180393     0.00700
C1453       C  0.71068353  0.27336212  0.92512726     0.40000
C1454       C  0.73743464  0.35125796  0.90807088     0.36700
C1455       C  0.67479144  0.32946511  0.89329730     0.36400
C1456       C  0.73088982  0.35365124  0.83544518     0.37200
N1457       N  0.70456579  0.25776040  0.92844160    -0.43600
N1458       N  0.74254173  0.36726814  0.90502402    -0.44100
N1459       N  0.74256698  0.35821393  0.82384854    -0.41400
N1460       N  0.66325757  0.32483633  0.90500765    -0.42900
H1461       H  0.66701941  0.34792626  0.85996671     0.13300
H1462       H  0.73845301  0.33474629  0.86864041     0.09800
H1463       H  0.70000387  0.29545203  0.89500233     0.10800
H1464       H  0.74968333  0.32874088  0.93720213     0.16700
C1465       C  0.59033663  0.31305913  0.77617069    -0.01600
C1466       C  0.58952594  0.33374244  0.77813088     0.07000
C1467       C  0.57291993  0.34406156  0.77138614    -0.07500
C1468       C  0.55721819  0.33398092  0.76248881     0.04500
C1469       C  0.55816712  0.31326151  0.76026901    -0.14800
C1470       C  0.57461680  0.30297995  0.76748505    -0.08100
C1471       C  0.60656120  0.34474256  0.78605408     0.05400
C1472       C  0.61967587  0.35337831  0.77266562    -0.09200
C1473       C  0.63774772  0.36101942  0.77903648     0.00400
C1474       C  0.64270155  0.36046175  0.79935424     0.00300
C1475       C  0.62901059  0.35253865  0.81281742    -0.12800
C1476       C  0.61112360  0.34459478  0.80631746     0.00700
C1477       C  0.65140384  0.36753132  0.76405970     0.40000
C1478       C  0.59797432  0.33574511  0.82055874     0.36700
C1479       C  0.60755739  0.30201932  0.78218003     0.36400
C1480       C  0.54012219  0.34510682  0.75629673     0.37200
N1481       N  0.66208172  0.37239087  0.75165557    -0.43600
N1482       N  0.58746282  0.32858178  0.83195269    -0.44100
N1483       N  0.52637504  0.35400280  0.75142789    -0.41400
N1484       N  0.62143591  0.29327140  0.78693036    -0.42900
H1485       H  0.57550233  0.28709088  0.76569845     0.13300
H1486       H  0.57232686  0.35998506  0.77294328     0.09800
H1487       H  0.61623923  0.35311525  0.75701318     0.10800
H1488       H  0.63248365  0.35208806  0.82845008     0.16700
C1489       C  0.70877164  0.41952702  0.76358478    -0.01600
C1490       C  0.72331242  0.43104493  0.77291836     0.07000
C1491       C  0.72699656  0.42827545  0.79313145    -0.07500
C1492       C  0.71656633  0.41409632  0.80404051     0.04500
C1493       C  0.70211807  0.40229732  0.79460544    -0.14800
C1494       C  0.69838010  0.40541788  0.77442370    -0.08100
C1495       C  0.73467584  0.44612496  0.76180291     0.05400
C1496       C  0.72464250  0.46227671  0.75357293    -0.09200
C1497       C  0.73476737  0.47666661  0.74275286     0.00400
C1498       C  0.75539414  0.47514858  0.74028461     0.00300
C1499       C  0.76545390  0.45906703  0.74863989    -0.12800
C1500       C  0.75523939  0.44446360  0.75912301     0.00700
C1501       C  0.72379011  0.49327795  0.73510059     0.40000
C1502       C  0.76600080  0.42756167  0.76640319     0.36700
C1503       C  0.70462894  0.42152399  0.74275361     0.36400
C1504       C  0.72054865  0.41257406  0.82493585     0.37200
N1505       N  0.71504004  0.50661988  0.72898010    -0.43600
N1506       N  0.77453197  0.41392511  0.77216700    -0.44100
N1507       N  0.72374612  0.41142970  0.84168998    -0.41400
N1508       N  0.70129609  0.42312582  0.72606695    -0.42900
H1509       H  0.68745675  0.39652981  0.76686403     0.13300
H1510       H  0.73798258  0.43736091  0.80043300     0.09800
H1511       H  0.70884451  0.46366680  0.75570377     0.10800
H1512       H  0.78128234  0.45775926  0.74670119     0.16700
C1513       C  0.81535993  0.20413211  0.87029995    -0.01600
C1514       C  0.82454046  0.21520246  0.88533079     0.07000
C1515       C  0.84517897  0.21586131  0.88630389    -0.07500
C1516       C  0.85675534  0.20582551  0.87247680     0.04500
C1517       C  0.84761271  0.19481251  0.85728619    -0.14800
C1518       C  0.82690686  0.19400976  0.85648968    -0.08100
C1519       C  0.81295416  0.22566458  0.90063866     0.05400
C1520       C  0.80179002  0.21454530  0.91402928    -0.09200
C1521       C  0.79139029  0.22371246  0.92932838     0.00400
C1522       C  0.79194947  0.24450565  0.93129587     0.00300
C1523       C  0.80318529  0.25559090  0.91783830    -0.12800
C1524       C  0.81364212  0.24636470  0.90260459     0.00700
C1525       C  0.78119683  0.21128754  0.94333532     0.40000
C1526       C  0.82479503  0.25842888  0.88902790     0.36700
C1527       C  0.79415028  0.20337434  0.86846866     0.36400
C1528       C  0.87792301  0.20648062  0.87475075     0.37200
N1529       N  0.77314200  0.20128908  0.95460381    -0.43600
N1530       N  0.83376999  0.26807112  0.87815617    -0.44100
N1531       N  0.89488583  0.20698745  0.87659373    -0.41400
N1532       N  0.77715432  0.20278841  0.86699323    -0.42900
H1533       H  0.81969378  0.18577532  0.84480696     0.13300
H1534       H  0.85225439  0.22408507  0.89808184     0.09800
H1535       H  0.80157491  0.19858188  0.91276160     0.10800
H1536       H  0.80371422  0.27153963  0.91913235     0.16700
C1537       C  0.11224424  0.21351369  0.81574987    -0.01600
C1538       C  0.10909638  0.21078197  0.79535521     0.07000
C1539       C  0.12136409  0.19786733  0.78481276    -0.07500
C1540       C  0.13663682  0.18768412  0.79423212     0.04500
C1541       C  0.13997219  0.19059323  0.81465137    -0.14800
C1542       C  0.12757496  0.20347978  0.82516219    -0.08100
C1543       C  0.09354879  0.22175107  0.78458995     0.05400
C1544       C  0.09376251  0.24245484  0.78502265    -0.09200
C1545       C  0.07948594  0.25340918  0.77495833     0.00400
C1546       C  0.06492901  0.24354888  0.76375376     0.00300
C1547       C  0.06487135  0.22284278  0.76314032    -0.12800
C1548       C  0.07888258  0.21190718  0.77358494     0.00700
C1549       C  0.08059095  0.27468645  0.77589093     0.40000
C1550       C  0.07762357  0.19063073  0.77313026     0.36700
C1551       C  0.09992297  0.22645600  0.82737989     0.36400
C1552       C  0.14909025  0.17516203  0.78229933     0.37200
N1553       N  0.08146308  0.29172867  0.77670585    -0.43600
N1554       N  0.07664256  0.17358188  0.77274942    -0.44100
N1555       N  0.15902151  0.16512730  0.77268676    -0.41400
N1556       N  0.09013992  0.23692694  0.83667052    -0.42900
H1557       H  0.12987045  0.20578494  0.84084716     0.13300
H1558       H  0.11921644  0.19602977  0.76904304     0.09800
H1559       H  0.10524300  0.25008824  0.79315666     0.10800
H1560       H  0.05364963  0.21515207  0.75470382     0.16700
C1561       C  0.09643765  0.32385393  0.70605970    -0.01600
C1562       C  0.10039459  0.32055891  0.68591212     0.07000
C1563       C  0.08834745  0.30782723  0.67503114    -0.07500
C1564       C  0.07234691  0.29835966  0.68389963     0.04500
C1565       C  0.06833889  0.30147534  0.70418371    -0.14800
C1566       C  0.08043809  0.31438153  0.71501751    -0.08100
C1567       C  0.11691825  0.33038831  0.67572885     0.05400
C1568       C  0.13327458  0.31908422  0.67004456    -0.09200
C1569       C  0.14911101  0.32781494  0.66012642     0.00400
C1570       C  0.14857229  0.34818493  0.65578047     0.00300
C1571       C  0.13217918  0.35945187  0.66148203    -0.12800
C1572       C  0.11629410  0.35067503  0.67122668     0.00700
C1573       C  0.16607215  0.31579910  0.65540692     0.40000
C1574       C  0.09930808  0.36260299  0.67602950     0.36700
C1575       C  0.10885090  0.33654929  0.71784861     0.36400
C1576       C  0.05998157  0.28611500  0.67159145     0.37200
N1577       N  0.17971553  0.30623303  0.65166901    -0.43600
N1578       N  0.08565004  0.37211151  0.67984455    -0.44100
N1579       N  0.05007088  0.27635492  0.66168204    -0.41400
N1580       N  0.11883725  0.34673602  0.72723718    -0.42900
H1581       H  0.07763539  0.31679351  0.73059939     0.13300
H1582       H  0.09134622  0.30548627  0.65946745     0.09800
H1583       H  0.13371226  0.30346151  0.67354321     0.10800
H1584       H  0.13168054  0.37509245  0.65806695     0.16700
C1585       C  0.93425298  0.19072523  0.79198066    -0.01600
C1586       C  0.93725327  0.21130508  0.79321265     0.07000
C1587       C  0.92382205  0.22278124  0.80393834    -0.07500
C1588       C  0.90751284  0.21426758  0.81323184     0.04500
C1589       C  0.90395680  0.19369867  0.81139558    -0.14800
C1590       C  0.91764221  0.18216868  0.80084844    -0.08100
C1591       C  0.95347814  0.22147950  0.78246868     0.05400
C1592       C  0.95475969  0.21932520  0.76190007    -0.09200
C1593       C  0.96879629  0.22976794  0.75092865     0.00400
C1594       C  0.98176536  0.24300981  0.76055505     0.00300
C1595       C  0.98046715  0.24513465  0.78115146    -0.12800
C1596       C  0.96663297  0.23443574  0.79213027     0.00700
C1597       C  0.96900269  0.22703546  0.72977713     0.40000
C1598       C  0.96646003  0.23679322  0.81332665     0.36700
C1599       C  0.94816397  0.17804499  0.78198930     0.36400
C1600       C  0.89454157  0.22735751  0.82394524     0.37200
N1601       N  0.96914438  0.22477995  0.71283626    -0.43600
N1602       N  0.96630806  0.23873910  0.83030426    -0.44100
N1603       N  0.88431923  0.23794877  0.83260915    -0.41400
N1604       N  0.95932989  0.16787887  0.77401376    -0.42900
H1605       H  0.91544023  0.16636728  0.79956733     0.13300
H1606       H  0.92587934  0.23864288  0.80472865     0.09800
H1607       H  0.94443614  0.20973598  0.75430576     0.10800
H1608       H  0.99050953  0.25498211  0.78879027     0.16700
C1609       C  0.93742738  0.35088918  0.66286120    -0.01600
C1610       C  0.94298727  0.33093938  0.66136302     0.07000
C1611       C  0.93298921  0.31860649  0.64811104    -0.07500
C1612       C  0.91735230  0.32568999  0.63665041     0.04500
C1613       C  0.91092574  0.34550026  0.63891240    -0.14800
C1614       C  0.92149910  0.35792416  0.65183751    -0.08100
C1615       C  0.95850208  0.32230689  0.67413384     0.05400
C1616       C  0.95608336  0.32301985  0.69470903    -0.13200
C1617       C  0.96950067  0.31365979  0.70730094     0.00400
C1618       C  0.98546484  0.30299086  0.69922368     0.00300
C1619       C  0.98807418  0.30261576  0.67866054    -0.12800
C1620       C  0.97488695  0.31231172  0.66611909     0.00700
C1621       C  0.96595527  0.31445802  0.72831471     0.40000
C1622       C  0.97858758  0.31198222  0.64511789     0.36700
C1623       C  0.94799272  0.36451028  0.67540106     0.36400
C1624       C  0.90852937  0.31208758  0.62283180     0.37200
N1625       N  0.96309426  0.31513880  0.74514930    -0.43600
N1626       N  0.98153722  0.31172859  0.62828821    -0.44100
N1627       N  0.90188599  0.30099025  0.61167474    -0.41400
N1628       N  0.95646005  0.37546191  0.68540215    -0.42900
H1629       H  0.91734569  0.37328965  0.65349242     0.13300
H1630       H  0.93729679  0.30322646  0.64689529     0.09800
H1631       H  0.94337795  0.33050798  0.70092661     0.10800
H1632       H  0.00053817  0.29479275  0.67235936     0.16700
C1633       C  0.84021267  0.34053521  0.55863418    -0.01600
C1634       C  0.83412049  0.32088967  0.56159802     0.07000
C1635       C  0.83951108  0.31092414  0.57891130    -0.07500
C1636       C  0.85050244  0.32045279  0.59352843     0.04500
C1637       C  0.85635256  0.34024679  0.59071903    -0.14800
C1638       C  0.85110856  0.35011334  0.57327046    -0.08100
C1639       C  0.82204125  0.31041886  0.54685295     0.05400
C1640       C  0.83060890  0.29490056  0.53631889    -0.09200
C1641       C  0.81977002  0.28447021  0.52224661     0.00400
C1642       C  0.79975337  0.28949218  0.51869659     0.00300
C1643       C  0.79125189  0.30510823  0.52939475    -0.12800
C1644       C  0.80220352  0.31552732  0.54342260     0.00700
C1645       C  0.82987626  0.26907421  0.51149599     0.40000
C1646       C  0.79272496  0.33114800  0.55439649     0.36700
C1647       C  0.83569965  0.35098742  0.54059581     0.36400
C1648       C  0.85444656  0.31000819  0.61169899     0.37200
N1649       N  0.83802219  0.25676530  0.50289778    -0.43600
N1650       N  0.78519724  0.34369856  0.56319936    -0.44100
N1651       N  0.85743805  0.30157780  0.62626655    -0.41400
N1652       N  0.83208493  0.35931379  0.52611206    -0.42900
H1653       H  0.85564340  0.36530593  0.57104035     0.13300
H1654       H  0.83473122  0.29580778  0.58116257     0.09800
H1655       H  0.84592063  0.29106478  0.53900380     0.10800
H1656       H  0.77595653  0.30911681  0.52695171     0.16700
C1657       C  0.83769815  0.44948783  0.68340121    -0.01600
C1658       C  0.83910624  0.44996845  0.66261362     0.07000
C1659       C  0.83049710  0.46562149  0.65214990    -0.07500
C1660       C  0.82014665  0.48048345  0.66205466     0.04500
C1661       C  0.81832496  0.47974052  0.68281638    -0.14800
C1662       C  0.82757186  0.46446980  0.69331905    -0.08100
C1663       C  0.84783059  0.43335451  0.65145450     0.05400
C1664       C  0.83536371  0.42187396  0.63963265    -0.09200
C1665       C  0.84224358  0.40472946  0.63044272     0.00400
C1666       C  0.86213671  0.39878662  0.63310671     0.00300
C1667       C  0.87480811  0.41102190  0.64413870    -0.12800
C1668       C  0.86786253  0.42819084  0.65320379     0.00700
C1669       C  0.82817514  0.39329921  0.61922678     0.40000
C1670       C  0.88152639  0.44019122  0.66430890     0.36700
C1671       C  0.84549050  0.43320518  0.69477136     0.36400
C1672       C  0.81188453  0.49648554  0.65062695     0.37200
N1673       N  0.81681506  0.38425459  0.61023287    -0.43600
N1674       N  0.89251106  0.44974756  0.67323006    -0.44100
N1675       N  0.80533447  0.50934064  0.64146380    -0.41400
N1676       N  0.85173685  0.42015007  0.70386243    -0.42900
H1677       H  0.82614391  0.46376634  0.70926163     0.13300
H1678       H  0.83160996  0.46602380  0.63617261     0.09800
H1679       H  0.81995792  0.42597602  0.63816486     0.10800
H1680       H  0.89019673  0.40705411  0.64598444     0.16700
C1681       C  0.19753326  0.80866412  0.08078425    -0.01600
C1682       C  0.20748765  0.81892432  0.06564568     0.07000
C1683       C  0.20664243  0.83962682  0.06515850    -0.07500
C1684       C  0.19679804  0.85018185  0.07992028     0.04500
C1685       C  0.18723635  0.83991310  0.09533678    -0.14800
C1686       C  0.18739721  0.81918424  0.09532947    -0.08100
C1687       C  0.21938539  0.80836023  0.05060261     0.05400
C1688       C  0.21030337  0.79420672  0.03852783    -0.09200
C1689       C  0.22120675  0.78346980  0.02464343     0.00400
C1690       C  0.24165207  0.78713236  0.02242252     0.00300
C1691       C  0.25059071  0.80152711  0.03441417    -0.12800
C1692       C  0.23973680  0.81200578  0.04844382     0.00700
C1693       C  0.21086545  0.76903702  0.01286455     0.40000
C1694       C  0.24997652  0.82602334  0.06082578     0.36700
C1695       C  0.19821833  0.78740284  0.08224365     0.36400
C1696       C  0.19643405  0.87145950  0.07865017     0.37200
N1697       N  0.20250448  0.75744429  0.00351486    -0.43600
N1698       N  0.25816051  0.83728988  0.07071364    -0.44100
N1699       N  0.19614923  0.88851200  0.07764614    -0.41400
N1700       N  0.19874249  0.77036635  0.08339429    -0.42900
H1701       H  0.18016194  0.81114274  0.10713675     0.13300
H1702       H  0.21394010  0.84756245  0.05331980     0.09800
H1703       H  0.19460504  0.79150261  0.04002048     0.10800
H1704       H  0.26624839  0.80449431  0.03305370     0.16700
C1705       C  0.32899287  0.72343890  0.04814443    -0.01600
C1706       C  0.31713489  0.71286571  0.06157756     0.07000
C1707       C  0.29697261  0.71051249  0.05768466    -0.07500
C1708       C  0.28844467  0.71876371  0.04077977     0.04500
C1709       C  0.30028048  0.72961111  0.02741452    -0.14800
C1710       C  0.32051284  0.73171635  0.03126492    -0.08100
C1711       C  0.32537345  0.70501976  0.08022858     0.05400
C1712       C  0.33336618  0.71833048  0.09389175    -0.09200
C1713       C  0.34199292  0.71164058  0.11138262     0.00400
C1714       C  0.34261217  0.69117452  0.11547166     0.00300
C1715       C  0.33398944  0.67791679  0.10205408    -0.12800
C1716       C  0.32543730  0.68466331  0.08450851     0.00700
C1717       C  0.34947488  0.72619100  0.12505681     0.40000
C1718       C  0.31733834  0.67041212  0.07088868     0.36700
C1719       C  0.34989610  0.72598235  0.05138717     0.36400
C1720       C  0.26737049  0.71686766  0.03825255     0.37200
N1721       N  0.35545349  0.73786551  0.13600044    -0.43600
N1722       N  0.31079207  0.65901356  0.05998313    -0.44100
N1723       N  0.25047466  0.71539647  0.03629870    -0.41400
N1724       N  0.36662415  0.72805191  0.05407823    -0.42900
H1725       H  0.32973012  0.73998274  0.02111731     0.13300
H1726       H  0.28778350  0.70265673  0.06818336     0.09800
H1727       H  0.33287375  0.73404449  0.09081990     0.10800
H1728       H  0.33430931  0.66219111  0.10505867     0.16700
C1729       C  0.34913554  0.71915662  0.87774598    -0.01600
C1730       C  0.34641751  0.70890549  0.89564277     0.07000
C1731       C  0.35377677  0.68968082  0.89769843    -0.07500
C1732       C  0.36304691  0.68026522  0.88182986     0.04500
C1733       C  0.36485733  0.69014655  0.86360292    -0.14800
C1734       C  0.35843289  0.70975642  0.86189459    -0.08100
C1735       C  0.33438138  0.71733332  0.91171451     0.05400
C1736       C  0.31428615  0.71267793  0.91230455    -0.09200
C1737       C  0.30198640  0.72075282  0.92676294     0.00400
C1738       C  0.30994308  0.73354331  0.94124464     0.00300
C1739       C  0.33017874  0.73816159  0.94053730    -0.12800
C1740       C  0.34238206  0.73022327  0.92587446     0.00700
C1741       C  0.28115647  0.71646259  0.92560776     0.40000
C1742       C  0.36297406  0.73562125  0.92547110     0.36700
C1743       C  0.34171761  0.73896511  0.87509923     0.36400
C1744       C  0.37092702  0.66066587  0.88464422     0.37200
N1745       N  0.26445712  0.71309677  0.92453125    -0.43600
N1746       N  0.37946799  0.73999219  0.92509471    -0.44100
N1747       N  0.37742579  0.64503011  0.88692059    -0.41400
N1748       N  0.33573399  0.75482987  0.87300542    -0.42900
H1749       H  0.35988776  0.71741882  0.84789727     0.13300
H1750       H  0.35187425  0.68190363  0.91157242     0.09800
H1751       H  0.30812676  0.70299572  0.90113159     0.10800
H1752       H  0.33650061  0.74803649  0.95143281     0.16700
C1753       C  0.30035994  0.59509664  0.78505746    -0.01600
C1754       C  0.32109773  0.59345805  0.78555698     0.07000
C1755       C  0.33030513  0.57762145  0.77597979    -0.07500
C1756       C  0.31926958  0.56395586  0.76522198     0.04500
C1757       C  0.29855797  0.56604316  0.76397770    -0.14800
C1758       C  0.28924660  0.58133703  0.77437780    -0.08100
C1759       C  0.33357676  0.60863679  0.79507820     0.05400
C1760       C  0.33241886  0.61147597  0.81553501    -0.09200
C1761       C  0.34367335  0.62608156  0.82488041     0.00400
C1762       C  0.35649534  0.63815697  0.81358499     0.00300
C1763       C  0.35786299  0.63482166  0.79310165    -0.12800
C1764       C  0.34654721  0.62033769  0.78384235     0.00700
C1765       C  0.34176770  0.62800262  0.84601513     0.40000
C1766       C  0.34798900  0.61824053  0.76265348     0.36700
C1767       C  0.29027739  0.61121290  0.79468080     0.36400
C1768       C  0.32953950  0.54765479  0.75607081     0.37200
N1769       N  0.34000285  0.62936642  0.86295539    -0.43600
N1770       N  0.34913530  0.61653363  0.74568831    -0.44100
N1771       N  0.33775336  0.53456278  0.74879845    -0.41400
N1772       N  0.28224778  0.62413907  0.80243419    -0.42900
H1773       H  0.27334271  0.58291130  0.77363627     0.13300
H1774       H  0.34622357  0.57612668  0.77670039     0.09800
H1775       H  0.32261136  0.60226202  0.82420650     0.10800
H1776       H  0.36742457  0.64390899  0.78404572     0.16700
C1777       C  0.44957475  0.71842670  0.74842607    -0.01600
C1778       C  0.45105244  0.71679049  0.76910525     0.07000
C1779       C  0.46731542  0.72482159  0.77894900    -0.07500
C1780       C  0.48197123  0.73480170  0.76852308     0.04500
C1781       C  0.48037922  0.73686041  0.74781546    -0.14800
C1782       C  0.46430820  0.72834622  0.73789958    -0.08100
C1783       C  0.43559926  0.70722903  0.78101225     0.05400
C1784       C  0.43454727  0.68660367  0.78147527    -0.09200
C1785       C  0.42081307  0.67707059  0.79357292     0.00400
C1786       C  0.40782287  0.68837558  0.80540228     0.00300
C1787       C  0.40902827  0.70906287  0.80487149    -0.12800
C1788       C  0.42274052  0.71851886  0.79276484     0.00700
C1789       C  0.42098723  0.65575515  0.79414339     0.40000
C1790       C  0.42323459  0.73982862  0.79238728     0.36700
C1791       C  0.43281923  0.71058240  0.73787006     0.36400
C1792       C  0.49881081  0.74211104  0.77936825     0.37200
N1793       N  0.42117746  0.63867756  0.79461345    -0.43600
N1794       N  0.42368252  0.75689929  0.79199688    -0.44100
N1795       N  0.51233047  0.74790580  0.78804341    -0.41400
N1796       N  0.41934991  0.70433935  0.72943458    -0.42900
H1797       H  0.46305240  0.72981831  0.72199701     0.13300
H1798       H  0.46849624  0.72330306  0.79485932     0.09800
H1799       H  0.44472035  0.67797193  0.77262571     0.10800
H1800       H  0.39901074  0.71790571  0.81368137     0.16700
C1801       C  0.22442312  0.84288301  0.89014383    -0.01600
C1802       C  0.21606102  0.82610756  0.89905569     0.07000
C1803       C  0.19667593  0.82074708  0.89441819    -0.07500
C1804       C  0.18564591  0.83153126  0.88067454     0.04500
C1805       C  0.19415158  0.84819069  0.87116879    -0.14800
C1806       C  0.21351756  0.85370688  0.87638753    -0.08100
C1807       C  0.22728306  0.81398925  0.91334385     0.05400
C1808       C  0.23306706  0.82249697  0.93130155    -0.09200
C1809       C  0.24366543  0.81155268  0.94520826     0.00400
C1810       C  0.24854700  0.79171190  0.94117632     0.00300
C1811       C  0.24252366  0.78309975  0.92335189    -0.12800
C1812       C  0.23206967  0.79411462  0.90936439     0.00700
C1813       C  0.24840517  0.82065465  0.96391148     0.40000
C1814       C  0.22679554  0.78487722  0.89088812     0.36700
C1815       C  0.24438526  0.84895547  0.89446621     0.36400
C1816       C  0.16577882  0.82487004  0.87686180     0.37200
N1817       N  0.25211864  0.82785883  0.97895430    -0.43600
N1818       N  0.22257550  0.77748771  0.87607312    -0.44100
N1819       N  0.14990358  0.81929880  0.87396877    -0.41400
N1820       N  0.26036113  0.85382282  0.89799357    -0.42900
H1821       H  0.22045235  0.86636616  0.86949065     0.13300
H1822       H  0.19015924  0.80798408  0.90157546     0.09800
H1823       H  0.22908417  0.83766880  0.93451955     0.10800
H1824       H  0.24620195  0.76781981  0.92027216     0.16700
C1825       C  0.21883295  0.08918808  0.77124800    -0.01600
C1826       C  0.21948339  0.08991045  0.79206485     0.07000
C1827       C  0.23042978  0.07565844  0.80237780    -0.07500
C1828       C  0.24112361  0.06114673  0.79226192     0.04500
C1829       C  0.24085052  0.06071022  0.77139192    -0.14800
C1830       C  0.22936792  0.07460435  0.76114238    -0.08100
C1831       C  0.20928438  0.10577577  0.80321884     0.05400
C1832       C  0.18873322  0.10754036  0.80176069    -0.09200
C1833       C  0.17877711  0.12330804  0.81064940     0.00400
C1834       C  0.18949256  0.13770112  0.82138382     0.00300
C1835       C  0.20997072  0.13528924  0.82362865    -0.12800
C1836       C  0.21989389  0.11959231  0.81459912     0.00700
C1837       C  0.15759055  0.12417260  0.80855531     0.40000
C1838       C  0.24109767  0.11856413  0.81637067     0.36700
C1839       C  0.20809529  0.10370017  0.75988384     0.36400
C1840       C  0.25171415  0.04658073  0.80368094     0.37200
N1841       N  0.14061972  0.12485842  0.80682305    -0.43600
N1842       N  0.25808732  0.11769339  0.81777191    -0.44100
N1843       N  0.26013870  0.03488008  0.81285851    -0.41400
N1844       N  0.19948581  0.11531768  0.75077435    -0.42900
H1845       H  0.22904807  0.07442205  0.74512457     0.13300
H1846       H  0.23068662  0.07596307  0.81839193     0.09800
H1847       H  0.18048913  0.09671048  0.79333091     0.10800
H1848       H  0.21844955  0.14616931  0.83174052     0.16700
C1849       C  0.33705747  0.13095147  0.69195092    -0.01600
C1850       C  0.32762341  0.11537944  0.68189440     0.07000
C1851       C  0.32693973  0.11565476  0.66121981    -0.07500
C1852       C  0.33555378  0.13104798  0.65044693     0.04500
C1853       C  0.34523605  0.14664953  0.66044339    -0.14800
C1854       C  0.34591955  0.14624404  0.68122489    -0.08100
C1855       C  0.31792278  0.09884360  0.69253155     0.05400
C1856       C  0.29746442  0.09646992  0.69066212    -0.09200
C1857       C  0.28768441  0.08084284  0.70000730     0.00400
C1858       C  0.29849569  0.06712125  0.71148930     0.00300
C1859       C  0.31899192  0.06961940  0.71341158    -0.12800
C1860       C  0.32875378  0.08517921  0.70392142     0.00700
C1861       C  0.26649910  0.07972142  0.69806284     0.40000
C1862       C  0.34995224  0.08644415  0.70553450     0.36700
C1863       C  0.33716952  0.13195353  0.71325266     0.36400
C1864       C  0.33443768  0.13002463  0.62919912     0.37200
N1865       N  0.24951908  0.07887868  0.69651513    -0.43600
N1866       N  0.36694064  0.08749120  0.70681382    -0.44100
N1867       N  0.33325936  0.12888035  0.61219464    -0.41400
N1868       N  0.33723665  0.13276525  0.73032332    -0.42900
H1869       H  0.35293738  0.15820691  0.68921003     0.13300
H1870       H  0.31964923  0.10369979  0.65345330     0.09800
H1871       H  0.28908917  0.10697802  0.68193615     0.10800
H1872       H  0.32750235  0.05914431  0.72203541     0.16700
C1873       C  0.24210737  0.95854068  0.79939479    -0.01600
C1874       C  0.22649937  0.94752125  0.79120755     0.07000
C1875       C  0.22029471  0.95153134  0.77188158    -0.07500
C1876       C  0.22944861  0.96619041  0.76056237     0.04500
C1877       C  0.24520455  0.97729613  0.76867591    -0.14800
C1878       C  0.25135065  0.97316976  0.78811172    -0.08100
C1879       C  0.21620482  0.93185078  0.80249682     0.05400
C1880       C  0.19614867  0.93433142  0.80695794    -0.09200
C1881       C  0.18559569  0.91954146  0.81679026     0.00400
C1882       C  0.19519806  0.90190413  0.82234997     0.00300
C1883       C  0.21534762  0.89957992  0.81818107    -0.12800
C1884       C  0.22582561  0.91425836  0.80812587     0.00700
C1885       C  0.16512749  0.92305850  0.82151962     0.40000
C1886       C  0.24617148  0.91058684  0.80300412     0.36700
C1887       C  0.24853773  0.95547468  0.81950097     0.36400
C1888       C  0.22244098  0.96914307  0.74063717     0.37200
N1889       N  0.14874010  0.92587953  0.82537725    -0.43600
N1890       N  0.26247387  0.90765110  0.79888483    -0.44100
N1891       N  0.21673308  0.97142925  0.72468771    -0.41400
N1892       N  0.25372400  0.95299388  0.83559773    -0.42900
H1893       H  0.26323179  0.98161513  0.79470694     0.13300
H1894       H  0.20828864  0.94303098  0.76556656     0.09800
H1895       H  0.18873002  0.94787185  0.80269715     0.10800
H1896       H  0.22277684  0.88597790  0.82222704     0.16700
C1897       C  0.33442991  0.96661127  0.69927167    -0.01600
C1898       C  0.32480074  0.95315299  0.68665023     0.07000
C1899       C  0.30420877  0.95393662  0.68489474    -0.07500
C1900       C  0.29316574  0.96799081  0.69522155     0.04500
C1901       C  0.30276630  0.98158315  0.70786351    -0.14800
C1902       C  0.32339734  0.98058075  0.70980780    -0.08100
C1903       C  0.33577328  0.93790467  0.67532346     0.05400
C1904       C  0.34647333  0.92341635  0.68557365    -0.09200
C1905       C  0.35593922  0.90805452  0.67546787     0.00400
C1906       C  0.35469543  0.90699493  0.65463745     0.00300
C1907       C  0.34415151  0.92165533  0.64442367    -0.12800
C1908       C  0.33481849  0.93704726  0.65453161     0.00700
C1909       C  0.36578030  0.89301882  0.68695540     0.40000
C1910       C  0.32447045  0.95189116  0.64324038     0.36700
C1911       C  0.35563608  0.96670479  0.70122633     0.36400
C1912       C  0.27198266  0.96759527  0.69296674     0.37200
N1913       N  0.37363352  0.88093901  0.69615061    -0.43600
N1914       N  0.31614724  0.96379283  0.63423318    -0.44100
N1915       N  0.25501709  0.96723863  0.69110501    -0.41400
N1916       N  0.37263679  0.96675599  0.70275580    -0.42900
H1917       H  0.33098765  0.99092861  0.71937186     0.13300
H1918       H  0.29670968  0.94338866  0.67546633     0.09800
H1919       H  0.34698592  0.92383300  0.70157936     0.10800
H1920       H  0.34317402  0.92108627  0.62844400     0.16700
C1921       C  0.30276655  0.84081039  0.54168171    -0.01600
C1922       C  0.31643651  0.83094169  0.55385660     0.07000
C1923       C  0.31938064  0.81063210  0.55148574    -0.07500
C1924       C  0.30918271  0.80007282  0.53699790     0.04500
C1925       C  0.29575677  0.80997825  0.52435858    -0.14800
C1926       C  0.29256696  0.83031653  0.52707517    -0.08100
C1927       C  0.32768146  0.84134560  0.56943626     0.05400
C1928       C  0.31768713  0.84804646  0.58624378    -0.09200
C1929       C  0.32797978  0.85671219  0.60191472     0.00400
C1930       C  0.34870726  0.85888439  0.60080139     0.00300
C1931       C  0.35865800  0.85221393  0.58389053    -0.12800
C1932       C  0.34831901  0.84354833  0.56823901     0.00700
C1933       C  0.31703945  0.86207252  0.61940862     0.40000
C1934       C  0.35910849  0.83715372  0.55100709     0.36700
C1935       C  0.29935978  0.86175622  0.54361420     0.36400
C1936       C  0.31244759  0.77902335  0.53596786     0.37200
N1937       N  0.30829445  0.86627268  0.63346766    -0.43600
N1938       N  0.36767328  0.83201744  0.53715152    -0.44100
N1939       N  0.31505918  0.76215585  0.53521185    -0.41400
N1940       N  0.29665285  0.87854893  0.54518384    -0.42900
H1941       H  0.28231660  0.83813362  0.51757650     0.13300
H1942       H  0.32963566  0.80298193  0.56113160     0.09800
H1943       H  0.30185348  0.84600867  0.58731853     0.10800
H1944       H  0.37453889  0.85384257  0.58287366     0.16700
C1945       C  0.42247322  0.82402895  0.65052468    -0.01600
C1946       C  0.43718339  0.83338170  0.66191955     0.07000
C1947       C  0.43638077  0.85394260  0.66442103    -0.07500
C1948       C  0.42082323  0.86507485  0.65651738     0.04500
C1949       C  0.40567663  0.85559798  0.64569375    -0.14800
C1950       C  0.40703255  0.83513852  0.64247787    -0.08100
C1951       C  0.45323114  0.82191423  0.67166633     0.05400
C1952       C  0.46576827  0.81015442  0.66011952    -0.09200
C1953       C  0.48039919  0.79840130  0.66883064     0.00400
C1954       C  0.48315529  0.79876096  0.68954990     0.00300
C1955       C  0.47086677  0.81091975  0.70102621    -0.12800
C1956       C  0.45585746  0.82219005  0.69234657     0.00700
C1957       C  0.49231073  0.78624618  0.65603616     0.40000
C1958       C  0.44274640  0.83316407  0.70507365     0.36700
C1959       C  0.42234539  0.80291349  0.64760855     0.36400
C1960       C  0.42104611  0.88618175  0.65948858     0.37200
N1961       N  0.50162758  0.77643215  0.64562579    -0.43600
N1962       N  0.43218001  0.84190212  0.71525377    -0.44100
N1963       N  0.42126790  0.90309527  0.66188294    -0.41400
N1964       N  0.42224935  0.78600081  0.64521982    -0.42900
H1965       H  0.39556596  0.82758261  0.63426216     0.13300
H1966       H  0.44789062  0.86129657  0.67276584     0.09800
H1967       H  0.46394439  0.80998330  0.64420428     0.10800
H1968       H  0.47255707  0.81115383  0.71695344     0.16700
C1969       C  0.83763183  0.11840205  0.16642247    -0.01600
C1970       C  0.82797782  0.10471030  0.15412204     0.07000
C1971       C  0.82705857  0.10812936  0.13375286    -0.07500
C1972       C  0.83598723  0.12481062  0.12542806     0.04500
C1973       C  0.84607281  0.13841014  0.13770584    -0.14800
C1974       C  0.84670110  0.13494094  0.15816335    -0.08100
C1975       C  0.81845958  0.08696542  0.16248116     0.05400
C1976       C  0.79782699  0.08585421  0.16264140    -0.09200
C1977       C  0.78821299  0.07062628  0.17274629     0.00400
C1978       C  0.79943305  0.05631705  0.18300163     0.00300
C1979       C  0.82009264  0.05695659  0.18196713    -0.12800
C1980       C  0.82964735  0.07198499  0.17159995     0.00700
C1981       C  0.76692078  0.07082057  0.17339507     0.40000
C1982       C  0.85092454  0.07185962  0.17061058     0.36700
C1983       C  0.83792836  0.11605531  0.18763103     0.36400
C1984       C  0.83502414  0.12709611  0.10425453     0.37200
N1985       N  0.74985916  0.07099830  0.17390479    -0.43600
N1986       N  0.86797022  0.07174472  0.16975507    -0.44100
N1987       N  0.83411982  0.12871945  0.08726485    -0.41400
N1988       N  0.83810150  0.11413641  0.20461328    -0.42900
H1989       H  0.85401488  0.14537049  0.16785114     0.13300
H1990       H  0.81950549  0.09761397  0.12433424     0.09800
H1991       H  0.78923765  0.09735452  0.15552949     0.10800
H1992       H  0.82880095  0.04577464  0.18943379     0.16700
C1993       C  0.73199133  0.09196590  0.24802815    -0.01600
C1994       C  0.72706618  0.08992493  0.26821445     0.07000
C1995       C  0.73239632  0.07249847  0.27817093    -0.07500
C1996       C  0.74259767  0.05738208  0.26843411     0.04500
C1997       C  0.74727774  0.05941530  0.24826081    -0.14800
C1998       C  0.74179041  0.07664953  0.23820398    -0.08100
C1999       C  0.71602322  0.10555008  0.27908289     0.05400
C2000       C  0.69769248  0.11192043  0.27185060    -0.09200
C2001       C  0.68688870  0.12672668  0.28146372     0.00400
C2002       C  0.69409937  0.13509635  0.29928267     0.00300
C2003       C  0.71238799  0.12833451  0.30658360    -0.12800
C2004       C  0.72341005  0.11401739  0.29659201     0.00700
C2005       C  0.66884717  0.13319894  0.27216133     0.40000
C2006       C  0.74260467  0.10881066  0.30427670     0.36700
C2007       C  0.72761845  0.10979896  0.23718545     0.36400
C2008       C  0.74729127  0.03955651  0.27916882     0.37200
N2009       N  0.65450107  0.13836811  0.26446012    -0.43600
N2010       N  0.75799670  0.10469073  0.31042398    -0.44100
N2011       N  0.75100547  0.02523085  0.28771832    -0.41400
N2012       N  0.72411060  0.12408035  0.22847881    -0.42900
H2013       H  0.74544520  0.07825526  0.22268663     0.13300
H2014       H  0.72837121  0.07061117  0.29355525     0.09800
H2015       H  0.69184433  0.10537497  0.25845625     0.10800
H2016       H  0.71838087  0.13437094  0.32011994     0.16700
C2017       C  0.75237498  0.94438880  0.27083328    -0.01600
C2018       C  0.73203096  0.94474514  0.27507863     0.07000
C2019       C  0.72061933  0.96098703  0.26920552    -0.07500
C2020       C  0.72902104  0.97646081  0.25851081     0.04500
C2021       C  0.74920635  0.97576792  0.25358180    -0.14800
C2022       C  0.76082514  0.95993518  0.26020146    -0.08100
C2023       C  0.72212535  0.92821629  0.28527190     0.05400
C2024       C  0.72682702  0.92415446  0.30498912    -0.09200
C2025       C  0.71685721  0.90939215  0.31546361     0.00400
C2026       C  0.70161323  0.89849486  0.30611439     0.00300
C2027       C  0.69736161  0.90247834  0.28613317    -0.12800
C2028       C  0.70747352  0.91705858  0.27572094     0.00700
C2029       C  0.72255721  0.90626576  0.33575443     0.40000
C2030       C  0.70272216  0.92014111  0.25514128     0.36700
C2031       C  0.76464198  0.92790558  0.27652193     0.36400
C2032       C  0.71679418  0.99313518  0.25330058     0.37200
N2033       N  0.72751786  0.90396797  0.35194590    -0.43600
N2034       N  0.69893268  0.92259479  0.23865539    -0.44100
N2035       N  0.70705707  0.00656889  0.24922360    -0.41400
N2036       N  0.77446804  0.91469716  0.28109521    -0.42900
H2037       H  0.77637295  0.95937573  0.25646191     0.13300
H2038       H  0.70505152  0.96145983  0.27287448     0.09800
H2039       H  0.73814341  0.93279826  0.31230511     0.10800
H2040       H  0.68608271  0.89416479  0.27843444     0.16700
C2041       C  0.61077371  0.84209128  0.30900791    -0.01600
C2042       C  0.61060264  0.83781524  0.28865891     0.07000
C2043       C  0.62702462  0.84244733  0.27703704    -0.07500
C2044       C  0.64392146  0.85059701  0.28555735     0.04500
C2045       C  0.64442090  0.85422571  0.30610549    -0.14800
C2046       C  0.62771416  0.85009041  0.31760887    -0.08100
C2047       C  0.59410769  0.82707810  0.27941297     0.05400
C2048       C  0.58189424  0.83695108  0.26598743    -0.09200
C2049       C  0.56670167  0.82693083  0.25624922     0.00400
C2050       C  0.56361806  0.80658514  0.26000086     0.00300
C2051       C  0.57592283  0.79683903  0.27357840    -0.12800
C2052       C  0.59117969  0.80684823  0.28311403     0.00700
C2053       C  0.55447185  0.83804140  0.24277228     0.40000
C2054       C  0.60415732  0.79592239  0.29604887     0.36700
C2055       C  0.59375280  0.83837276  0.32126272     0.36400
C2056       C  0.66089449  0.85381801  0.27308329     0.37200
N2057       N  0.54477858  0.84703079  0.23194216    -0.43600
N2058       N  0.61465031  0.78722685  0.30635842    -0.44100
N2059       N  0.67447020  0.85628962  0.26302908    -0.41400
N2060       N  0.58007597  0.83545393  0.33105342    -0.42900
H2061       H  0.62791674  0.85310140  0.33334080     0.13300
H2062       H  0.62687099  0.83901036  0.26138876     0.09800
H2063       H  0.58431338  0.85251395  0.26308129     0.10800
H2064       H  0.57393599  0.78121343  0.27644552     0.16700
C2065       C  0.70401077  0.81930623  0.37457387    -0.01600
C2066       C  0.71012568  0.82982116  0.39148866     0.07000
C2067       C  0.70688345  0.85025859  0.39250774    -0.07500
C2068       C  0.69815701  0.86036681  0.37676654     0.04500
C2069       C  0.69258354  0.84993753  0.35966949    -0.14800
C2070       C  0.69511526  0.82940760  0.35892584    -0.08100
C2071       C  0.72139100  0.82021140  0.40756169     0.05400
C2072       C  0.74071825  0.82658981  0.41107139    -0.09200
C2073       C  0.75227137  0.81792031  0.42579471     0.00400
C2074       C  0.74449898  0.80222852  0.43726370     0.00300
C2075       C  0.72495258  0.79610667  0.43385212    -0.12800
C2076       C  0.71334149  0.80507570  0.41932008     0.00700
C2077       C  0.77197275  0.82555062  0.42855110     0.40000
C2078       C  0.69309222  0.79885592  0.41711384     0.36700
C2079       C  0.70763064  0.79840232  0.37245675     0.36400
C2080       C  0.69457331  0.88127895  0.37871205     0.37200
N2081       N  0.78769870  0.83182983  0.43072099    -0.43600
N2082       N  0.67687339  0.79383986  0.41535212    -0.44100
N2083       N  0.69157871  0.89801407  0.38037773    -0.41400
N2084       N  0.71045361  0.78163874  0.37076835    -0.42900
H2085       H  0.69087984  0.82136830  0.34573527     0.13300
H2086       H  0.71143738  0.85834911  0.40555590     0.09800
H2087       H  0.74685599  0.83837489  0.40212121     0.10800
H2088       H  0.71857347  0.78438720  0.44269207     0.16700
C2089       C  0.83001871  0.95104974  0.18431994    -0.01600
C2090       C  0.81922132  0.93771228  0.17259272     0.07000
C2091       C  0.79917437  0.94130109  0.16904381    -0.07500
C2092       C  0.78968108  0.95772894  0.17719678     0.04500
C2093       C  0.80035376  0.97098006  0.18937715    -0.14800
C2094       C  0.82057203  0.96745706  0.19259272    -0.08100
C2095       C  0.82822995  0.91945233  0.16452814     0.05400
C2096       C  0.83504014  0.90495653  0.17767147    -0.09200
C2097       C  0.84233642  0.88691230  0.17071927     0.00400
C2098       C  0.84271298  0.88308722  0.15019190     0.00300
C2099       C  0.83620509  0.89778052  0.13707671    -0.12800
C2100       C  0.82907451  0.91586126  0.14404624     0.00700
C2101       C  0.84845435  0.87233972  0.18504098     0.40000
C2102       C  0.82301428  0.93064611  0.12992102     0.36700
C2103       C  0.85084736  0.94832813  0.18785963     0.36400
C2104       C  0.76888433  0.96006831  0.17320859     0.37200
N2105       N  0.85334096  0.86072650  0.19659214    -0.43600
N2106       N  0.81818154  0.94253467  0.11863257    -0.44100
N2107       N  0.75222182  0.96185210  0.16993482    -0.41400
N2108       N  0.86754456  0.94615356  0.19067474    -0.42900
H2109       H  0.82908315  0.97749956  0.20169192     0.13300
H2110       H  0.79080346  0.93095922  0.16013410     0.09800
H2111       H  0.83422640  0.90759706  0.19345064     0.10800
H2112       H  0.83691039  0.89522548  0.12129924     0.16700
C2113       C  0.10785770  0.68616032  0.29609382    -0.01600
C2114       C  0.10797794  0.70660004  0.29214562     0.07000
C2115       C  0.12310219  0.71838113  0.29985298    -0.07500
C2116       C  0.13820320  0.71008270  0.31118934     0.04500
C2117       C  0.13824680  0.68955227  0.31499467    -0.14800
C2118       C  0.12305419  0.67778725  0.30728230    -0.08100
C2119       C  0.09233719  0.71614961  0.28027446     0.05400
C2120       C  0.08010052  0.73007903  0.28939546    -0.09200
C2121       C  0.06513603  0.73956681  0.27881025     0.00400
C2122       C  0.06215294  0.73499016  0.25861383     0.00300
C2123       C  0.07466457  0.72117202  0.24949080    -0.12800
C2124       C  0.08980403  0.71194738  0.26006165     0.00700
C2125       C  0.05292389  0.75354841  0.28928274     0.40000
C2126       C  0.10294447  0.69871728  0.24974086     0.36700
C2127       C  0.09204102  0.67361809  0.28928705     0.36400
C2128       C  0.15385215  0.72287264  0.31795611     0.37200
N2129       N  0.04322169  0.76478594  0.29772702    -0.43600
N2130       N  0.11352431  0.68814423  0.24150119    -0.44100
N2131       N  0.16639701  0.73312100  0.32335346    -0.41400
N2132       N  0.07936001  0.66357867  0.28382321    -0.42900
H2133       H  0.12286958  0.66206600  0.31029516     0.13300
H2134       H  0.12320572  0.73410234  0.29678278     0.09800
H2135       H  0.08219610  0.73344197  0.30492112     0.10800
H2136       H  0.07282870  0.71775659  0.23395263     0.16700
C2137       C  0.08935048  0.78954796  0.17704148    -0.01600
C2138       C  0.08909103  0.81034171  0.17606369     0.07000
C2139       C  0.07345322  0.82077697  0.18465753    -0.07500
C2140       C  0.05830531  0.81083188  0.19448498     0.04500
C2141       C  0.05857123  0.78999480  0.19555067    -0.14800
C2142       C  0.07403636  0.77955489  0.18657072    -0.08100
C2143       C  0.10489823  0.82146519  0.16593864     0.05400
C2144       C  0.10748779  0.81880377  0.14561057    -0.09200
C2145       C  0.12254836  0.82857944  0.13548961     0.00400
C2146       C  0.13544369  0.84139283  0.14585132     0.00300
C2147       C  0.13235402  0.84447073  0.16615906    -0.12800
C2148       C  0.11729037  0.83460435  0.17623100     0.00700
C2149       C  0.12405942  0.82532183  0.11446259     0.40000
C2150       C  0.11529096  0.83761417  0.19724985     0.36700
C2151       C  0.10556297  0.77822577  0.16909547     0.36400
C2152       C  0.04248924  0.82236317  0.20291824     0.37200
N2153       N  0.12523421  0.82262984  0.09762603    -0.43600
N2154       N  0.11364410  0.84000048  0.21409035    -0.44100
N2155       N  0.02982541  0.83159563  0.20969949    -0.41400
N2156       N  0.11859642  0.76916980  0.16279672    -0.42900
H2157       H  0.07449570  0.76357650  0.18754126     0.13300
H2158       H  0.07312006  0.83675759  0.18367957     0.09800
H2159       H  0.09768581  0.80896951  0.13763503     0.10800
H2160       H  0.14209593  0.85414312  0.17437983     0.16700
C2161       C  0.90645725  0.81585876  0.18006092    -0.01600
C2162       C  0.92253037  0.80961498  0.16839451     0.07000
C2163       C  0.92173389  0.81204189  0.14784055    -0.07500
C2164       C  0.90540507  0.82101477  0.13887414     0.04500
C2165       C  0.88954118  0.82769786  0.15060719    -0.14800
C2166       C  0.89024947  0.82501460  0.17113410    -0.08100
C2167       C  0.94046671  0.80091255  0.17741888     0.05400
C2168       C  0.94514629  0.78112107  0.17359902    -0.09200
C2169       C  0.96150517  0.77215419  0.18256202     0.00400
C2170       C  0.97358372  0.78319532  0.19558263     0.00300
C2171       C  0.96908532  0.80318755  0.19887326    -0.12800
C2172       C  0.95279887  0.81208439  0.18988387     0.00700
C2173       C  0.96493407  0.75147300  0.17870166     0.40000
C2174       C  0.94911807  0.83275915  0.19356056     0.36700
C2175       C  0.90614979  0.81273218  0.20115979     0.36400
C2176       C  0.90574071  0.82412177  0.11777839     0.37200
N2177       N  0.96760405  0.73488944  0.17558077    -0.43600
N2178       N  0.94612621  0.84930783  0.19655115    -0.44100
N2179       N  0.90602165  0.82670428  0.10088498    -0.41400
N2180       N  0.90594065  0.81022213  0.21806465    -0.42900
H2181       H  0.87798487  0.82986258  0.18018886     0.13300
H2182       H  0.93409003  0.80729154  0.13884909     0.09800
H2183       H  0.93570683  0.77254131  0.16392487     0.10800
H2184       H  0.97831551  0.81196882  0.20856296     0.16700
C2185       C  0.95608684  0.72953032  0.28650655    -0.01600
C2186       C  0.94816437  0.71137799  0.28043557     0.07000
C2187       C  0.95569029  0.70190207  0.26370883    -0.07500
C2188       C  0.97079851  0.71052742  0.25261978     0.04500
C2189       C  0.97853895  0.72910834  0.25834502    -0.14800
C2190       C  0.97120950  0.73817380  0.27556153    -0.08100
C2191       C  0.93077801  0.70298255  0.29029832     0.05400
C2192       C  0.91228868  0.70614622  0.28165459    -0.09200
C2193       C  0.89524294  0.69895722  0.29062885     0.00400
C2194       C  0.89673188  0.68821252  0.30837411     0.00300
C2195       C  0.91518465  0.68535027  0.31725031    -0.12800
C2196       C  0.93226189  0.69266373  0.30829761     0.00700
C2197       C  0.87636183  0.70357625  0.28189318     0.40000
C2198       C  0.95110826  0.68925568  0.31761999     0.36700
C2199       C  0.94829572  0.73993301  0.30341005     0.36400
C2200       C  0.97752820  0.70010342  0.23528816     0.37200
N2201       N  0.86124913  0.70750191  0.27497330    -0.43600
N2202       N  0.96621964  0.68652870  0.32509303    -0.44100
N2203       N  0.98282400  0.69166625  0.22140839    -0.41400
N2204       N  0.94196395  0.74824599  0.31692071    -0.42900
H2205       H  0.97691451  0.75235276  0.28029552     0.13300
H2206       H  0.94939029  0.68793162  0.25906877     0.09800
H2207       H  0.91119542  0.71449648  0.26801890     0.10800
H2208       H  0.91625538  0.67712048  0.33095736     0.16700
C2209       C  0.82312027  0.61060436  0.30751068    -0.01600
C2210       C  0.82286515  0.60905078  0.28676876     0.07000
C2211       C  0.83217920  0.62351232  0.27532656    -0.07500
C2212       C  0.84212875  0.63920842  0.28420079     0.04500
C2213       C  0.84239709  0.64087328  0.30504794    -0.14800
C2214       C  0.83265752  0.62653473  0.31644101    -0.08100
C2215       C  0.81290013  0.59250448  0.27665998     0.05400
C2216       C  0.79257405  0.58997047  0.27934741    -0.09200
C2217       C  0.78253536  0.57461178  0.26997085     0.00400
C2218       C  0.79295639  0.56151865  0.25748342     0.00300
C2219       C  0.81328089  0.56429102  0.25461311    -0.12800
C2220       C  0.82330472  0.57956685  0.26412603     0.00700
C2221       C  0.76149590  0.57314622  0.27296989     0.40000
C2222       C  0.84432073  0.58140643  0.26113979     0.36700
C2223       C  0.81436499  0.59566228  0.31994177     0.36400
C2224       C  0.85163936  0.65329052  0.27135272     0.37200
N2225       N  0.74463817  0.57202357  0.27540080    -0.43600
N2226       N  0.86114683  0.58294967  0.25872913    -0.44100
N2227       N  0.85927907  0.66422749  0.26069179    -0.41400
N2228       N  0.80738566  0.58365969  0.32989170    -0.42900
H2229       H  0.83294865  0.62743725  0.33243040     0.13300
H2230       H  0.83175031  0.62243774  0.25934225     0.09800
H2231       H  0.78450691  0.60016149  0.28869946     0.10800
H2232       H  0.82145593  0.55430990  0.24513710     0.16700
C2233       C  0.81889236  0.69608909  0.37978513    -0.01600
C2234       C  0.83087987  0.70489704  0.39436755     0.07000
C2235       C  0.85144636  0.70297697  0.39308340    -0.07500
C2236       C  0.86020328  0.69360962  0.37690375     0.04500
C2237       C  0.84820491  0.68552266  0.36186484    -0.14800
C2238       C  0.82760852  0.68635194  0.36386080    -0.08100
C2239       C  0.82222009  0.71701220  0.41041547     0.05400
C2240       C  0.80817698  0.70852556  0.42298233    -0.09200
C2241       C  0.79835401  0.71988631  0.43711610     0.00400
C2242       C  0.80293248  0.74020507  0.43919594     0.00300
C2243       C  0.81758289  0.74845913  0.42707609    -0.12800
C2244       C  0.82708781  0.73713696  0.41268290     0.00700
C2245       C  0.78371944  0.71012922  0.44915854     0.40000
C2246       C  0.84118842  0.74672975  0.39989797     0.36700
C2247       C  0.79765426  0.69780208  0.38015473     0.36400
C2248       C  0.88146921  0.69260066  0.37614826     0.37200
N2249       N  0.77193335  0.70226300  0.45869045    -0.43600
N2250       N  0.85253164  0.75434824  0.38965708    -0.44100
N2251       N  0.89851342  0.69188687  0.37551628    -0.41400
N2252       N  0.78063940  0.69913661  0.38045201    -0.42900
H2253       H  0.81821569  0.68025316  0.35241788     0.13300
H2254       H  0.86069683  0.70931857  0.40451045     0.09800
H2255       H  0.80461832  0.69298563  0.42147455     0.10800
H2256       H  0.82129492  0.76396607  0.42846058     0.16700
C2257       C  0.19937749  0.63307901  0.68548887    -0.01600
C2258       C  0.20987294  0.61896463  0.67445424     0.07000
C2259       C  0.21123379  0.62092357  0.65391666    -0.07500
C2260       C  0.20266282  0.63700374  0.64425265     0.04500
C2261       C  0.19241248  0.65146337  0.65532055    -0.14800
C2262       C  0.19068706  0.64910624  0.67588117    -0.08100
C2263       C  0.21998832  0.60228918  0.68412695     0.05400
C2264       C  0.20869140  0.58763475  0.69334127    -0.09200
C2265       C  0.21780170  0.57177135  0.70288919     0.00400
C2266       C  0.23860961  0.57049652  0.70322446     0.00300
C2267       C  0.24984331  0.58504865  0.69368242    -0.12800
C2268       C  0.24071448  0.60093755  0.68425652     0.00700
C2269       C  0.20544765  0.55672478  0.71156515     0.40000
C2270       C  0.25288400  0.61600267  0.67535170     0.36700
C2271       C  0.19800720  0.63183241  0.70673960     0.36400
C2272       C  0.20436300  0.63795231  0.62301076     0.37200
N2273       N  0.19554199  0.54464035  0.71845734    -0.43600
N2274       N  0.26258031  0.62811507  0.66821906    -0.44100
N2275       N  0.20578808  0.63867814  0.60599344    -0.41400
N2276       N  0.19694568  0.63084127  0.72376789    -0.42900
H2277       H  0.18299354  0.66009939  0.68460788     0.13300
H2278       H  0.21915537  0.60987910  0.64544965     0.09800
H2279       H  0.19272116  0.58859740  0.69299431     0.10800
H2280       H  0.26582206  0.58425697  0.69397196     0.16700
C2281       C  0.18782810  0.72201662  0.57383564    -0.01600
C2282       C  0.20821440  0.72145251  0.56997139     0.07000
C2283       C  0.22085645  0.71146689  0.58297229    -0.07500
C2284       C  0.21347743  0.70207572  0.59976994     0.04500
C2285       C  0.19302264  0.70271561  0.60373719    -0.14800
C2286       C  0.18042040  0.71270956  0.59063696    -0.08100
C2287       C  0.21685026  0.73189384  0.55293139     0.05400
C2288       C  0.21510195  0.75248810  0.55192351    -0.09200
C2289       C  0.22421561  0.76310536  0.53679273     0.00400
C2290       C  0.23555102  0.75298406  0.52251958     0.00300
C2291       C  0.23693919  0.73232328  0.52336290    -0.12800
C2292       C  0.22760361  0.72172997  0.53834340     0.00700
C2293       C  0.22248827  0.78435752  0.53692912     0.40000
C2294       C  0.22913589  0.70046323  0.53838896     0.36700
C2295       C  0.17422737  0.73186435  0.56068962     0.36400
C2296       C  0.22737101  0.69286169  0.61307871     0.37200
N2297       N  0.22107043  0.80138263  0.53706436    -0.43600
N2298       N  0.23033934  0.68342326  0.53845093    -0.44100
N2299       N  0.23854677  0.68551889  0.62372186    -0.41400
N2300       N  0.16333828  0.73979301  0.55017554    -0.42900
H2301       H  0.16468619  0.71321978  0.59349586     0.13300
H2302       H  0.23661078  0.71136650  0.58015990     0.09800
H2303       H  0.20697392  0.76031375  0.56328479     0.10800
H2304       H  0.24538235  0.72441537  0.51229421     0.16700
C2305       C  0.62425547  0.23134015  0.66776658    -0.01600
C2306       C  0.60833228  0.22117558  0.67649811     0.07000
C2307       C  0.60828541  0.20044349  0.67640100    -0.07500
C2308       C  0.62398048  0.18981564  0.66816609     0.04500
C2309       C  0.63995867  0.20001160  0.65952160    -0.14800
C2310       C  0.63975552  0.22073442  0.65922063    -0.08100
C2311       C  0.59171381  0.23190898  0.68595176     0.05400
C2312       C  0.58038904  0.24509446  0.67464895    -0.09200
C2313       C  0.56485125  0.25577605  0.68313268     0.00400
C2314       C  0.56016842  0.25302703  0.70330620     0.00300
C2315       C  0.57146194  0.23965919  0.71449904    -0.12800
C2316       C  0.58715686  0.22926853  0.70608827     0.00700
C2317       C  0.55389374  0.26914152  0.67065276     0.40000
C2318       C  0.59875013  0.21647033  0.71861311     0.36700
C2319       C  0.62541210  0.25262416  0.66807592     0.36400
C2320       C  0.62299433  0.16852450  0.66823291     0.37200
N2321       N  0.54522944  0.27989738  0.66058601    -0.43600
N2322       N  0.60802486  0.20622439  0.72866641    -0.44100
N2323       N  0.62214076  0.15146301  0.66828480    -0.41400
N2324       N  0.62632480  0.26967911  0.66835243    -0.42900
H2325       H  0.65204346  0.22870080  0.65276797     0.13300
H2326       H  0.59593593  0.19255067  0.68282423     0.09800
H2327       H  0.58374082  0.24705337  0.65910799     0.10800
H2328       H  0.56827547  0.23753974  0.73005289     0.16700
C2329       C  0.72108481  0.20158219  0.58935117    -0.01600
C2330       C  0.70982296  0.20970446  0.57382029     0.07000
C2331       C  0.68919443  0.21009761  0.57545835    -0.07500
C2332       C  0.67973522  0.20300825  0.59241172     0.04500
C2333       C  0.69102142  0.19514138  0.60813255    -0.14800
C2334       C  0.71164512  0.19431448  0.60622351    -0.08100
C2335       C  0.71925716  0.21816470  0.55590098     0.05400
C2336       C  0.73090762  0.20603099  0.54381538    -0.09200
C2337       C  0.74035054  0.21362079  0.52703158     0.00400
C2338       C  0.73806499  0.23376981  0.52199664     0.00300
C2339       C  0.72600247  0.24573499  0.53392901    -0.12800
C2340       C  0.71673986  0.23817825  0.55075926     0.00700
C2341       C  0.75190850  0.20025986  0.51513664     0.40000
C2342       C  0.70528401  0.25144047  0.56290301     0.36700
C2343       C  0.74236771  0.20112665  0.58863597     0.36400
C2344       C  0.65844542  0.20343318  0.59291849     0.37200
N2345       N  0.76114830  0.18945930  0.50567111    -0.43600
N2346       N  0.69607886  0.26203083  0.57263918    -0.44100
N2347       N  0.64138263  0.20377323  0.59329505    -0.41400
N2348       N  0.75942295  0.20072253  0.58809267    -0.42900
H2349       H  0.72050654  0.18836695  0.61814850     0.13300
H2350       H  0.68044962  0.21601051  0.56340778     0.09800
H2351       H  0.73262494  0.19054870  0.54753718     0.10800
H2352       H  0.72418685  0.26125444  0.53042633     0.16700
C2353       C  0.68956689  0.61559368  0.18251311    -0.01600
C2354       C  0.69933066  0.60105553  0.17135009     0.07000
C2355       C  0.69937178  0.60227596  0.15070720    -0.07500
C2356       C  0.69074451  0.61834635  0.14107665     0.04500
C2357       C  0.68212366  0.63370281  0.15228607    -0.14800
C2358       C  0.68110689  0.63178813  0.17294501    -0.08100
C2359       C  0.71097574  0.58535445  0.18094746     0.05400
C2360       C  0.70128374  0.57023370  0.19117543    -0.09200
C2361       C  0.71205992  0.55546308  0.20079123     0.00400
C2362       C  0.73291323  0.55583098  0.20021651     0.00300
C2363       C  0.74250983  0.57082720  0.18964579    -0.12800
C2364       C  0.73173515  0.58558501  0.18012802     0.00700
C2365       C  0.70135664  0.53979725  0.21050767     0.40000
C2366       C  0.74227159  0.60118941  0.17012147     0.36700
C2367       C  0.68876406  0.61461321  0.20380601     0.36400
C2368       C  0.69063709  0.61841500  0.11974890     0.37200
N2369       N  0.69279001  0.52719483  0.21822350    -0.43600
N2370       N  0.75062421  0.61373837  0.16209401    -0.44100
N2371       N  0.69046871  0.61841627  0.10265777    -0.41400
N2372       N  0.68803857  0.61377645  0.22086096    -0.42900
H2373       H  0.67429714  0.64329207  0.18174809     0.13300
H2374       H  0.70653813  0.59080181  0.14214182     0.09800
H2375       H  0.68529064  0.56998879  0.19159643     0.10800
H2376       H  0.75849683  0.57131061  0.18922134     0.16700
C2377       C  0.62434438  0.72238746  0.16445051    -0.01600
C2378       C  0.60839783  0.71269888  0.17363535     0.07000
C2379       C  0.60704514  0.69208797  0.17271094    -0.07500
C2380       C  0.62149440  0.68099835  0.16310193     0.04500
C2381       C  0.63756421  0.69064985  0.15397869    -0.14800
C2382       C  0.63868730  0.71133252  0.15457336    -0.08100
C2383       C  0.59281986  0.72377003  0.18412920     0.05400
C2384       C  0.58100151  0.73696078  0.17344759    -0.09200
C2385       C  0.56596483  0.74758128  0.18274157     0.00400
C2386       C  0.56253051  0.74495658  0.20320465     0.00300
C2387       C  0.57433128  0.73153268  0.21377662    -0.12800
C2388       C  0.58938282  0.72100845  0.20445319     0.00700
C2389       C  0.55412974  0.76062615  0.17071940     0.40000
C2390       C  0.60138328  0.70779141  0.21613292     0.36700
C2391       C  0.62661532  0.74355593  0.16555053     0.36400
C2392       C  0.61909683  0.65982592  0.16232421     0.37200
N2393       N  0.54469405  0.77105715  0.16101014    -0.43600
N2394       N  0.61097977  0.69717099  0.22546894    -0.44100
N2395       N  0.61721563  0.64285898  0.16170756    -0.41400
N2396       N  0.62839532  0.76051797  0.16649536    -0.42900
H2397       H  0.65105242  0.71884289  0.14773372     0.13300
H2398       H  0.59460102  0.68466195  0.17950558     0.09800
H2399       H  0.58347307  0.73883920  0.15772907     0.10800
H2400       H  0.57200592  0.72940581  0.22947897     0.16700
C2401       C  0.83431450  0.11052407  0.81505949    -0.01600
C2402       C  0.83433040  0.10708401  0.79456089     0.07000
C2403       C  0.84489006  0.11979426  0.78210049    -0.07500
C2404       C  0.85476453  0.13628808  0.78970472     0.04500
C2405       C  0.85414232  0.14020867  0.81021439    -0.14800
C2406       C  0.84414022  0.12698136  0.82269675    -0.08100
C2407       C  0.82214366  0.09127896  0.78566220     0.05400
C2408       C  0.80154971  0.09319035  0.78616209    -0.09200
C2409       C  0.78939571  0.07920526  0.77705156     0.00400
C2410       C  0.79791214  0.06286208  0.76730198     0.00300
C2411       C  0.81855144  0.06095827  0.76688757    -0.12800
C2412       C  0.83067472  0.07497509  0.77600562     0.00700
C2413       C  0.76837083  0.08265400  0.77689810     0.40000
C2414       C  0.85178417  0.07222898  0.77551141     0.36700
C2415       C  0.82421819  0.09740839  0.82848919     0.36400
C2416       C  0.86415734  0.14958163  0.77594664     0.37200
N2417       N  0.75154020  0.08550555  0.77666911    -0.43600
N2418       N  0.86870616  0.07002144  0.77515551    -0.44100
N2419       N  0.87162012  0.16023924  0.76487528    -0.41400
N2420       N  0.81615540  0.08686335  0.83923862    -0.42900
H2421       H  0.84373952  0.12967130  0.83848153     0.13300
H2422       H  0.84476908  0.11722055  0.76628925     0.09800
H2423       H  0.79498881  0.10592460  0.79331617     0.10800
H2424       H  0.82522992  0.04842706  0.75949447     0.16700
C2425       C  0.71826112  0.09717864  0.71373114    -0.01600
C2426       C  0.71831224  0.09931044  0.69304914     0.07000
C2427       C  0.72787416  0.08519993  0.68133688    -0.07500
C2428       C  0.73730866  0.06895882  0.68997033     0.04500
C2429       C  0.73723903  0.06674775  0.71073003    -0.14800
C2430       C  0.72753833  0.08089193  0.72238329    -0.08100
C2431       C  0.70878432  0.11637669  0.68333831     0.05400
C2432       C  0.72073613  0.13134451  0.67562122    -0.09200
C2433       C  0.71239587  0.14773604  0.66623784     0.00400
C2434       C  0.69167682  0.14916342  0.66426534     0.00300
C2435       C  0.67971894  0.13427630  0.67232655    -0.12800
C2436       C  0.68811721  0.11789628  0.68174741     0.00700
C2437       C  0.72541653  0.16325487  0.65963236     0.40000
C2438       C  0.67534175  0.10259893  0.68927285     0.36700
C2439       C  0.70928615  0.11182367  0.72634378     0.36400
C2440       C  0.74629245  0.05448535  0.67715932     0.37200
N2441       N  0.73592222  0.17570400  0.65451558    -0.43600
N2442       N  0.66516168  0.09029453  0.69531634    -0.44100
N2443       N  0.75343274  0.04286137  0.66688000    -0.41400
N2444       N  0.70214909  0.12361261  0.73643114    -0.42900
H2445       H  0.72757720  0.07945974  0.73833849     0.13300
H2446       H  0.72785372  0.08685372  0.66540056     0.09800
H2447       H  0.73663251  0.13028632  0.67713526     0.10800
H2448       H  0.66381707  0.13522075  0.67087634     0.16700
C2449       C  0.07907473  0.83781472  0.78080316    -0.01600
C2450       C  0.09007182  0.82807679  0.79551291     0.07000
C2451       C  0.08560451  0.80846958  0.80029590    -0.07500
C2452       C  0.07106406  0.79811287  0.78988912     0.04500
C2453       C  0.06077396  0.80750521  0.77424789    -0.14800
C2454       C  0.06468238  0.82750262  0.77026373    -0.08100
C2455       C  0.10721253  0.83765561  0.80504140     0.05400
C2456       C  0.10660398  0.84192750  0.82529812    -0.09200
C2457       C  0.12275529  0.85080023  0.83466784     0.00400
C2458       C  0.13974365  0.85554155  0.82361583     0.00300
C2459       C  0.14025081  0.85136955  0.80335673    -0.12800
C2460       C  0.12428795  0.84224977  0.79407627     0.00700
C2461       C  0.12134450  0.85545032  0.85542210     0.40000
C2462       C  0.12605190  0.83701321  0.77347337     0.36700
C2463       C  0.08247564  0.85834421  0.77616349     0.36400
C2464       C  0.06767892  0.77774775  0.79520940     0.37200
N2465       N  0.12017840  0.85924194  0.87204354    -0.43600
N2466       N  0.12742977  0.83275197  0.75698403    -0.44100
N2467       N  0.06498011  0.76144794  0.79956465    -0.41400
N2468       N  0.08525733  0.87478848  0.77247267    -0.42900
H2469       H  0.05664614  0.83511518  0.75868856     0.13300
H2470       H  0.09399095  0.80103926  0.81175088     0.09800
H2471       H  0.09348085  0.83838797  0.83373811     0.10800
H2472       H  0.15343813  0.85463385  0.79489582     0.16700
C2473       C  0.08134138  0.74355032  0.67850761    -0.01600
C2474       C  0.09699489  0.73402693  0.68841620     0.07000
C2475       C  0.09791929  0.73465244  0.70909933    -0.07500
C2476       C  0.08324224  0.74411600  0.72000471     0.04500
C2477       C  0.06756753  0.75357011  0.71008626    -0.14800
C2478       C  0.06691379  0.75341516  0.68939471    -0.08100
C2479       C  0.11284943  0.72378883  0.67749910     0.05400
C2480       C  0.12402462  0.73453672  0.66384908    -0.09200
C2481       C  0.13942632  0.72567304  0.65345626     0.00400
C2482       C  0.14412503  0.70556154  0.65698038     0.00300
C2483       C  0.13281672  0.69486939  0.67072030    -0.12800
C2484       C  0.11727493  0.70375049  0.68089053     0.00700
C2485       C  0.15022798  0.73791068  0.63973184     0.40000
C2486       C  0.10593084  0.69190603  0.69451475     0.36700
C2487       C  0.07940154  0.74286617  0.65727266     0.36400
C2488       C  0.08493743  0.74438437  0.74126501     0.37200
N2489       N  0.15873843  0.74779590  0.62869793    -0.43600
N2490       N  0.09689817  0.68243409  0.70548816    -0.44100
N2491       N  0.08633182  0.74456304  0.75829679    -0.41400
N2492       N  0.07785428  0.74233139  0.64025998    -0.42900
H2493       H  0.05476978  0.76051863  0.68173633     0.13300
H2494       H  0.11018272  0.72773508  0.71673119     0.09800
H2495       H  0.12080000  0.75004739  0.66145991     0.10800
H2496       H  0.13599895  0.67942705  0.67350366     0.16700
C2497       C  0.81857147  0.79390172  0.03589737    -0.01600
C2498       C  0.80756972  0.80002075  0.05247179     0.07000
C2499       C  0.78711720  0.79704812  0.05273085    -0.07500
C2500       C  0.77756975  0.78787656  0.03685037     0.04500
C2501       C  0.78861356  0.78146807  0.02036227    -0.14800
C2502       C  0.80909221  0.78447274  0.02013549    -0.08100
C2503       C  0.81714139  0.80962977  0.06964929     0.05400
C2504       C  0.81350813  0.82964675  0.07325284    -0.09200
C2505       C  0.82275556  0.83950169  0.08891754     0.00400
C2506       C  0.83601981  0.82916107  0.10144487     0.00300
C2507       C  0.83923914  0.80891746  0.09788336    -0.12800
C2508       C  0.82988807  0.79914738  0.08227964     0.00700
C2509       C  0.81855443  0.86026213  0.09121152     0.40000
C2510       C  0.83328654  0.77825649  0.07972626     0.36700
C2511       C  0.83948327  0.79768428  0.03453986     0.36400
C2512       C  0.75659861  0.78450560  0.03825776     0.37200
N2513       N  0.81494720  0.87688212  0.09281418    -0.43600
N2514       N  0.83596899  0.76151099  0.07768221    -0.44100
N2515       N  0.73979246  0.78186386  0.03956653    -0.41400
N2516       N  0.85622471  0.80082814  0.03348940    -0.42900
H2517       H  0.81764298  0.77978211  0.00743899     0.13300
H2518       H  0.77864272  0.80172239  0.06548473     0.09800
H2519       H  0.80360006  0.83768001  0.06355698     0.10800
H2520       H  0.84897922  0.80052714  0.10742513     0.16700
C2521       C  0.71085042  0.72714941  0.04362661    -0.01600
C2522       C  0.71248069  0.70671643  0.04726371     0.07000
C2523       C  0.72326790  0.69489347  0.03409337    -0.07500
C2524       C  0.73302421  0.70325636  0.01789550     0.04500
C2525       C  0.73165958  0.72378479  0.01452915    -0.14800
C2526       C  0.72010930  0.73535776  0.02721486    -0.08100
C2527       C  0.70320913  0.69766997  0.06489362     0.05400
C2528       C  0.68283055  0.69984411  0.06767577    -0.09200
C2529       C  0.67371203  0.69312317  0.08489989     0.00400
C2530       C  0.68503481  0.68350212  0.09955435     0.00300
C2531       C  0.70531761  0.68067934  0.09641892    -0.12800
C2532       C  0.71450074  0.68783834  0.07938032     0.00700
C2533       C  0.65270141  0.69600023  0.08690756     0.40000
C2534       C  0.73561263  0.68567678  0.07750481     0.36700
C2535       C  0.70060855  0.74020071  0.05702363     0.36400
C2536       C  0.74389985  0.69044447  0.00479928     0.37200
N2537       N  0.63587726  0.69838616  0.08853716    -0.43600
N2538       N  0.75252597  0.68395816  0.07596514    -0.44100
N2539       N  0.75257397  0.68014446  0.99429261    -0.41400
N2540       N  0.69243631  0.75068576  0.06774566    -0.42900
H2541       H  0.71889469  0.75117543  0.02473994     0.13300
H2542       H  0.72422765  0.67906614  0.03662491     0.09800
H2543       H  0.67404256  0.70715784  0.05640867     0.10800
H2544       H  0.71417114  0.67334273  0.10761333     0.16700
C2545       C  0.92730625  0.83516611  0.81635080    -0.01600
C2546       C  0.92912875  0.83386096  0.79567629     0.07000
C2547       C  0.91389486  0.84085841  0.78354717    -0.07500
C2548       C  0.89679501  0.84892022  0.79173413     0.04500
C2549       C  0.89477174  0.84988599  0.81246575    -0.14800
C2550       C  0.91013576  0.84303015  0.82457071    -0.08100
C2551       C  0.94630487  0.82428609  0.78634463     0.05400
C2552       C  0.94942605  0.80411180  0.78962760    -0.09200
C2553       C  0.96482577  0.79413707  0.78024348     0.00400
C2554       C  0.97740435  0.80450248  0.76715861     0.00300
C2555       C  0.97425096  0.82479559  0.76407248    -0.12800
C2556       C  0.95890450  0.83471278  0.77355980     0.00700
C2557       C  0.96687414  0.77324616  0.78400453     0.40000
C2558       C  0.95655363  0.85563883  0.77021400     0.36700
C2559       C  0.94295250  0.82879681  0.82936296     0.36400
C2560       C  0.88120949  0.85504854  0.77853738     0.37200
N2561       N  0.96846005  0.75651247  0.78707987    -0.43600
N2562       N  0.95466720  0.87240880  0.76755415    -0.44100
N2563       N  0.86874067  0.85991585  0.76791759    -0.41400
N2564       N  0.95551136  0.82373451  0.83978230    -0.42900
H2565       H  0.90875513  0.84391243  0.84050682     0.13300
H2566       H  0.91521505  0.83959702  0.76762950     0.09800
H2567       H  0.93954752  0.79606785  0.79933018     0.10800
H2568       H  0.98387647  0.83304418  0.75430165     0.16700
C2569       C  0.84164006  0.92615990  0.79287869    -0.01600
C2570       C  0.82179012  0.93059198  0.79710090     0.07000
C2571       C  0.81138761  0.91875007  0.81048112    -0.07500
C2572       C  0.82038006  0.90251735  0.81957836     0.04500
C2573       C  0.84031244  0.89782785  0.81519247    -0.14800
C2574       C  0.85067244  0.90995017  0.80186909    -0.08100
C2575       C  0.81142655  0.94704933  0.78708284     0.05400
C2576       C  0.80959422  0.94656634  0.76646020    -0.09200
C2577       C  0.80025689  0.96189220  0.75629185     0.00400
C2578       C  0.79241090  0.97804532  0.76687028     0.00300
C2579       C  0.79376081  0.97826712  0.78755917    -0.12800
C2580       C  0.80327999  0.96299051  0.79770854     0.00700
C2581       C  0.79822067  0.96024315  0.73511893     0.40000
C2582       C  0.80499011  0.96425838  0.81892833     0.36700
C2583       C  0.85312552  0.93816435  0.77951564     0.36400
C2584       C  0.80843103  0.89077925  0.83276368     0.37200
N2585       N  0.79652275  0.95890076  0.71816500    -0.43600
N2586       N  0.80635301  0.96524434  0.83593613    -0.44100
N2587       N  0.79878737  0.88144650  0.84333369    -0.41400
N2588       N  0.86229096  0.94776361  0.76876623    -0.42900
H2589       H  0.86596868  0.90682716  0.79839349     0.13300
H2590       H  0.79602535  0.92202233  0.81355301     0.09800
H2591       H  0.81543403  0.93409131  0.75829508     0.10800
H2592       H  0.78771312  0.99059898  0.79578565     0.16700
C2593       C  0.79426623  0.81215094  0.91085039    -0.01600
C2594       C  0.81459967  0.80940979  0.90774568     0.07000
C2595       C  0.82484353  0.79526175  0.91882566    -0.07500
C2596       C  0.81505685  0.78365372  0.93281516     0.04500
C2597       C  0.79457747  0.78628793  0.93593971    -0.14800
C2598       C  0.78447729  0.80071688  0.92492310    -0.08100
C2599       C  0.82528616  0.82075761  0.89252175     0.05400
C2600       C  0.82781751  0.84115007  0.89504057    -0.09200
C2601       C  0.83711480  0.85245447  0.88048275     0.00400
C2602       C  0.84402907  0.84323628  0.86315426     0.00300
C2603       C  0.84195525  0.82275995  0.86091496    -0.12800
C2604       C  0.83254418  0.81150064  0.87537769     0.00700
C2605       C  0.83999725  0.87328896  0.88391803     0.40000
C2606       C  0.82977630  0.79063875  0.87197544     0.36700
C2607       C  0.78302124  0.82607329  0.89923751     0.36400
C2608       C  0.82653518  0.76947178  0.94384847     0.37200
N2609       N  0.84244781  0.88996712  0.88666858    -0.43600
N2610       N  0.82749517  0.77392785  0.86928110    -0.44100
N2611       N  0.83580376  0.75811076  0.95262927    -0.41400
N2612       N  0.77403435  0.83718890  0.88987040    -0.42900
H2613       H  0.76875345  0.80282772  0.92698071     0.13300
H2614       H  0.84053572  0.79323564  0.91642466     0.09800
H2615       H  0.82244197  0.84821042  0.90836760     0.10800
H2616       H  0.84715769  0.81563682  0.84754797     0.16700
C2617       C  0.94240581  0.71832816  0.64719055    -0.01600
C2618       C  0.94379434  0.71710669  0.66790302     0.07000
C2619       C  0.93022976  0.70551226  0.67836062    -0.07500
C2620       C  0.91532719  0.69517489  0.66852813     0.04500
C2621       C  0.91394204  0.69624533  0.64770079    -0.14800
C2622       C  0.92760164  0.70790949  0.63729031    -0.08100
C2623       C  0.95886204  0.72824752  0.67913366     0.05400
C2624       C  0.95823838  0.74893510  0.67903078    -0.09200
C2625       C  0.97135084  0.75996466  0.69055929     0.00400
C2626       C  0.98525367  0.75016892  0.70269317     0.00300
C2627       C  0.98603783  0.72944485  0.70245905    -0.12800
C2628       C  0.97310969  0.71848208  0.69071468     0.00700
C2629       C  0.96957883  0.78120835  0.69023662     0.40000
C2630       C  0.97490469  0.69724000  0.69052416     0.36700
C2631       C  0.95609086  0.73003239  0.63579841     0.36400
C2632       C  0.90109033  0.68461222  0.68035475     0.37200
N2633       N  0.96814523  0.79823058  0.68993650    -0.43600
N2634       N  0.97633518  0.68021955  0.69028303    -0.44100
N2635       N  0.88965605  0.67623491  0.68987939    -0.41400
N2636       N  0.96702933  0.73946339  0.62668831    -0.42900
H2637       H  0.92670741  0.70894065  0.62132973     0.13300
H2638       H  0.93106298  0.70489237  0.69435144     0.09800
H2639       H  0.94718081  0.75646257  0.67021942     0.10800
H2640       H  0.99687132  0.72175776  0.71140503     0.16700
C2641       C  0.86592453  0.61247681  0.65890395    -0.01600
C2642       C  0.84524405  0.61055407  0.65801546     0.07000
C2643       C  0.83405477  0.62516264  0.64859580    -0.07500
C2644       C  0.84311368  0.64169739  0.64022609     0.04500
C2645       C  0.86387453  0.64379130  0.64121046    -0.14800
C2646       C  0.87505848  0.62906237  0.65061102    -0.08100
C2647       C  0.83483479  0.59391984  0.66763494     0.05400
C2648       C  0.83482025  0.59278622  0.68829882    -0.09200
C2649       C  0.82455136  0.57777952  0.69807702     0.00400
C2650       C  0.81421784  0.56338657  0.68704625     0.00300
C2651       C  0.81406977  0.56472182  0.66633058    -0.12800
C2652       C  0.82423621  0.57984275  0.65659482     0.00700
C2653       C  0.82403371  0.57816238  0.71939696     0.40000
C2654       C  0.82383978  0.58049276  0.63528241     0.36700
C2655       C  0.87802842  0.59745595  0.66797661     0.36400
C2656       C  0.83058060  0.65672177  0.63172402     0.37200
N2657       N  0.82349967  0.57855592  0.73647556    -0.43600
N2658       N  0.82352234  0.58107692  0.61820441    -0.44100
N2659       N  0.82055160  0.66878104  0.62493869    -0.41400
N2660       N  0.88768529  0.58535644  0.67520967    -0.42900
H2661       H  0.89097629  0.63045530  0.65138556     0.13300
H2662       H  0.81811390  0.62382106  0.64817310     0.09800
H2663       H  0.84256660  0.60391642  0.69681045     0.10800
H2664       H  0.80617912  0.55379537  0.65769638     0.16700
C2665       C  0.84817136  0.69552969  0.56212695    -0.01600
C2666       C  0.84564585  0.71618195  0.56211983     0.07000
C2667       C  0.85400836  0.72747343  0.57729282    -0.07500
C2668       C  0.86441988  0.71849279  0.59266493     0.04500
C2669       C  0.86643204  0.69771008  0.59306007    -0.14800
C2670       C  0.85841101  0.68647230  0.57759540    -0.08100
C2671       C  0.83325182  0.72624236  0.54720877     0.05400
C2672       C  0.81315901  0.72149964  0.54616380    -0.09200
C2673       C  0.80062016  0.73127123  0.53299606     0.00400
C2674       C  0.80823560  0.74622966  0.52054482     0.00300
C2675       C  0.82840954  0.75096446  0.52174229    -0.12800
C2676       C  0.84089374  0.74113691  0.53489475     0.00700
C2677       C  0.78001309  0.72589365  0.53307467     0.40000
C2678       C  0.86153920  0.74637843  0.53528627     0.36700
C2679       C  0.84043118  0.68337432  0.54641846     0.36400
C2680       C  0.87170792  0.73092904  0.60837718     0.37200
N2681       N  0.76351631  0.72151490  0.53320450    -0.43600
N2682       N  0.87807235  0.75060090  0.53565555    -0.44100
N2683       N  0.87752234  0.74093666  0.62094278    -0.41400
N2684       N  0.83423578  0.67364534  0.53381859    -0.42900
H2685       H  0.86000270  0.67053825  0.57768493     0.13300
H2686       H  0.85184662  0.74334304  0.57743505     0.09800
H2687       H  0.80719638  0.71029205  0.55593045     0.10800
H2688       H  0.83457384  0.76225975  0.51221912     0.16700
C2689       C  0.68799765  0.92918586  0.67597790    -0.01600
C2690       C  0.70843937  0.93210080  0.67838406     0.07000
C2691       C  0.72168078  0.91839920  0.67031520    -0.07500
C2692       C  0.71489323  0.90225967  0.65940938     0.04500
C2693       C  0.69443908  0.89963265  0.65645705    -0.14800
C2694       C  0.68115909  0.91296900  0.66514169    -0.08100
C2695       C  0.71647117  0.94949888  0.68892500     0.05400
C2696       C  0.71324064  0.95148735  0.70928198    -0.09200
C2697       C  0.72180106  0.96703356  0.71991272     0.00400
C2698       C  0.73380703  0.98098664  0.71002945     0.00300
C2699       C  0.73658499  0.97913184  0.68954235    -0.12800
C2700       C  0.72808140  0.96359771  0.67899900     0.00700
C2701       C  0.71888698  0.96756219  0.74102639     0.40000
C2702       C  0.73149269  0.96240117  0.65797713     0.36700
C2703       C  0.67384595  0.94301353  0.68386905     0.36400
C2704       C  0.72920295  0.88825643  0.65210445     0.37200
N2705       N  0.71657368  0.96790129  0.75795624    -0.43600
N2706       N  0.73424239  0.96138287  0.64114287    -0.44100
N2707       N  0.74072764  0.87702204  0.64639547    -0.41400
N2708       N  0.66252781  0.95412352  0.69019830    -0.42900
H2709       H  0.66542271  0.91100884  0.66301396     0.13300
H2710       H  0.73740579  0.92039628  0.67251555     0.09800
H2711       H  0.70446227  0.94052559  0.71696624     0.10800
H2712       H  0.74563538  0.98975895  0.68170737     0.16700
C2713       C  0.61604878  0.84478066  0.66544517    -0.01600
C2714       C  0.61554309  0.82405650  0.66360951     0.07000
C2715       C  0.63041657  0.81439148  0.65300637    -0.07500
C2716       C  0.64609869  0.82501689  0.64478793     0.04500
C2717       C  0.64694377  0.84576771  0.64712124    -0.14800
C2718       C  0.63175926  0.85541098  0.65738107    -0.08100
C2719       C  0.59985137  0.81221065  0.67309832     0.05400
C2720       C  0.58649250  0.80180017  0.66123239    -0.09200
C2721       C  0.57082537  0.79132630  0.66969857     0.00400
C2722       C  0.56823410  0.79149437  0.69042326     0.00300
C2723       C  0.58206302  0.80141635  0.70225380    -0.12800
C2724       C  0.59795281  0.81143589  0.69380227     0.00700
C2725       C  0.55741096  0.78109541  0.65670423     0.40000
C2726       C  0.61237964  0.82045839  0.70664294     0.36700
C2727       C  0.60050292  0.85544470  0.67538334     0.36400
C2728       C  0.66158806  0.81409040  0.63504606     0.37200
N2729       N  0.54681599  0.77280669  0.64618919    -0.43600
N2730       N  0.62401695  0.82762780  0.71688046    -0.44100
N2731       N  0.67400406  0.80530317  0.62728328    -0.41400
N2732       N  0.58803234  0.86393965  0.68337377    -0.42900
H2733       H  0.63212192  0.87133180  0.65903960     0.13300
H2734       H  0.63002188  0.79844432  0.65160668     0.09800
H2735       H  0.58813774  0.80215054  0.64530134     0.10800
H2736       H  0.58058796  0.80116507  0.71820355     0.16700
C2737       C  0.72946483  0.85057620  0.58077644    -0.01600
C2738       C  0.71912992  0.84195000  0.56492988     0.07000
C2739       C  0.69845983  0.84206526  0.56497696    -0.07500
C2740       C  0.68799137  0.84987854  0.58095604     0.04500
C2741       C  0.69832863  0.85765804  0.59733410    -0.14800
C2742       C  0.71902283  0.85850554  0.59671665    -0.08100
C2743       C  0.72946997  0.83056742  0.54945081     0.05400
C2744       C  0.72745993  0.81001686  0.54965926    -0.09200
C2745       C  0.73714804  0.79829320  0.53578062     0.00400
C2746       C  0.74913734  0.80720931  0.52117428     0.00300
C2747       C  0.75122549  0.82786623  0.52106849    -0.12800
C2748       C  0.74139356  0.83958186  0.53500093     0.00700
C2749       C  0.73494274  0.77714223  0.53739332     0.40000
C2750       C  0.74333427  0.86077362  0.53394498     0.36700
C2751       C  0.75074388  0.85027417  0.58160718     0.36400
C2752       C  0.66670495  0.84979846  0.58007827     0.37200
N2753       N  0.73313988  0.76020818  0.53873447    -0.43600
N2754       N  0.74484559  0.87776813  0.53311749    -0.44100
N2755       N  0.64965044  0.84976787  0.57933407    -0.41400
N2756       N  0.76779746  0.84999788  0.58225778    -0.42900
H2757       H  0.72712756  0.86442479  0.60917171     0.13300
H2758       H  0.69051086  0.83550977  0.55271594     0.09800
H2759       H  0.71842848  0.80308948  0.56092875     0.10800
H2760       H  0.76022870  0.83490420  0.50986234     0.16700
C2761       C  0.71383679  0.72805086  0.90094189    -0.01600
C2762       C  0.71795832  0.70830212  0.89593557     0.07000
C2763       C  0.73160913  0.69760863  0.90721306    -0.07500
C2764       C  0.74102175  0.70621051  0.92349844     0.04500
C2765       C  0.73686392  0.72606282  0.92867524    -0.14800
C2766       C  0.72317100  0.73669719  0.91721419    -0.08100
C2767       C  0.70858077  0.69865998  0.87866909     0.05400
C2768       C  0.72029677  0.69403687  0.86227682    -0.09200
C2769       C  0.71207809  0.68514390  0.84554184     0.00400
C2770       C  0.69172123  0.68060157  0.84511917     0.00300
C2771       C  0.67999005  0.68534075  0.86152640    -0.12800
C2772       C  0.68827828  0.69414506  0.87830264     0.00700
C2773       C  0.72471094  0.68178109  0.82870877     0.40000
C2774       C  0.67581880  0.69795189  0.89515813     0.36700
C2775       C  0.70048396  0.73988216  0.88926267     0.36400
C2776       C  0.75449255  0.69407946  0.93472794     0.37200
N2777       N  0.73492443  0.67927595  0.81525242    -0.43600
N2778       N  0.66587152  0.70100049  0.90870024    -0.44100
N2779       N  0.76526181  0.68427971  0.94367572    -0.41400
N2780       N  0.68977465  0.74933087  0.87988151    -0.42900
H2781       H  0.71991204  0.75195949  0.92076700     0.13300
H2782       H  0.73481339  0.68240788  0.90332152     0.09800
H2783       H  0.73588088  0.69766391  0.86247525     0.10800
H2784       H  0.66439135  0.68179584  0.86139184     0.16700
C2785       C  0.62229227  0.68963644  0.76618322    -0.01600
C2786       C  0.60646471  0.69665278  0.77772965     0.07000
C2787       C  0.60656243  0.69327611  0.79818543    -0.07500
C2788       C  0.62247168  0.68363727  0.80727288     0.04500
C2789       C  0.63858660  0.67712683  0.79576754    -0.14800
C2790       C  0.63806745  0.67984020  0.77521732    -0.08100
C2791       C  0.59017717  0.70821865  0.76868103     0.05400
C2792       C  0.57774977  0.69911282  0.75486569    -0.09200
C2793       C  0.56340637  0.70998162  0.74465295     0.00400
C2794       C  0.56147248  0.73052518  0.74806648     0.00300
C2795       C  0.57342924  0.73937370  0.76256212    -0.12800
C2796       C  0.58764684  0.72844296  0.77283511     0.00700
C2797       C  0.55069867  0.69949858  0.73113675     0.40000
C2798       C  0.59998181  0.73847427  0.78703058     0.36700
C2799       C  0.62315283  0.69323354  0.74517501     0.36400
C2800       C  0.62171136  0.68021282  0.82830688     0.37200
N2801       N  0.54047953  0.69101867  0.72039424    -0.43600
N2802       N  0.60984104  0.74647798  0.79845191    -0.44100
N2803       N  0.62108307  0.67737897  0.84515096    -0.41400
N2804       N  0.62381640  0.69618996  0.72835468    -0.42900
H2805       H  0.65042044  0.67501961  0.76625594     0.13300
H2806       H  0.59428558  0.69840663  0.80707474     0.09800
H2807       H  0.57943781  0.68346566  0.75191001     0.10800
H2808       H  0.57204024  0.75503091  0.76558474     0.16700
C2809       C  0.72445150  0.58066576  0.74311676    -0.01600
C2810       C  0.72801398  0.58537357  0.76309308     0.07000
C2811       C  0.74314928  0.57551084  0.77322355    -0.07500
C2812       C  0.75523148  0.56178672  0.76363678     0.04500
C2813       C  0.75188698  0.55722598  0.74348832    -0.14800
C2814       C  0.73622574  0.56663081  0.73359611    -0.08100
C2815       C  0.71664600  0.60101251  0.77350280     0.05400
C2816       C  0.69600200  0.59964748  0.77462551    -0.09200
C2817       C  0.68485029  0.61439104  0.78390668     0.00400
C2818       C  0.69445304  0.63069461  0.79268820     0.00300
C2819       C  0.71511148  0.63179249  0.79188599    -0.12800
C2820       C  0.72619727  0.61731677  0.78227387     0.00700
C2821       C  0.66369767  0.61206703  0.78468815     0.40000
C2822       C  0.74731501  0.61990765  0.78110564     0.36700
C2823       C  0.70931303  0.59055216  0.73181309     0.36400
C2824       C  0.77094693  0.55287080  0.77495946     0.37200
N2825       N  0.64674224  0.61018511  0.78525907    -0.43600
N2826       N  0.76423614  0.62195755  0.78021755    -0.44100
N2827       N  0.78359332  0.54585741  0.78406275    -0.41400
N2828       N  0.69714938  0.59843883  0.72276993    -0.42900
H2829       H  0.73338498  0.56337967  0.71817589     0.13300
H2830       H  0.74574901  0.57882289  0.78868043     0.09800
H2831       H  0.68857745  0.58699219  0.76823316     0.10800
H2832       H  0.72266033  0.64427846  0.79841627     0.16700
loop_ 
_geom_bond_atom_site_label_1 
_geom_bond_atom_site_label_2 
_geom_bond_distance 
_geom_bond_site_symmetry_2 
_ccdc_geom_bond_type 
C1            N2   1.360       .  A
C1            N6   1.359       .  A
C1         C2789   1.480       .  S
N2            C3   1.358       .  A
C3            N4   1.356       .  A
C3         C2770   1.479       .  S
N4            C5   1.357       .  A
C5            N6   1.358       .  A
C5         C2818   1.481       .  S
C7            N8   1.357       .  A
C7           N12   1.358       .  A
C7         C2693   1.476       .  S
N8            C9   1.358       .  A
C9           N10   1.356       .  A
C9         C2717   1.478       .  S
N10          C11   1.357       .  A
C11          N12   1.357       .  A
C11        C2741   1.479       .  S
C13          N14   1.355       .  A
C13          N18   1.355       .  A
C13        C2669   1.476       .  S
N14          C15   1.357       .  A
C15          N16   1.360       .  A
C15        C2621   1.482       .  S
N16          C17   1.359       .  A
C17          N18   1.356       .  A
C17        C2645   1.480       .  S
C19          N20   1.356       .  A
C19          N24   1.354       .  A
C19        C2602   1.469       .  S
N20          C21   1.357       .  A
C21          N22   1.359       .  A
C21        C2573   1.488       .  S
N22          C23   1.356       .  A
C23          N24   1.354       .  A
C23        C2549   1.471       .  S
O25          V33   1.898       .  S
O25          C35   1.264       .  A
O26          V33   1.900       .  S
O26          C36   1.264       .  A
O27          V33   1.898       .  S
O27          C37   1.264       .  A
O28          V33   1.900       .  S
O28          C38   1.264   1_556  A
O29          V34   1.900       .  S
O29          C38   1.264   1_556  A
O30          V34   1.899       .  S
O30          C37   1.265       .  A
O31          V34   1.886       .  S
O31          C36   1.262       .  A
O32          V34   1.890       .  S
O32          C35   1.263       .  A
V33          V34   2.086       .  T
C35        C2597   1.480       .  S
C36        C2525   1.475   1_556  S
C37        C2765   1.488       .  S
C38        C2501   1.477       .  S
O39          V47   1.896       .  S
O39          C49   1.265   1_455  A
O40          V47   1.895       .  S
O40          C50   1.263       .  A
O41          V47   1.892       .  S
O41          C51   1.263   1_455  A
O42          V47   1.890       .  S
O42          C52   1.262       .  A
O43          V48   1.892       .  S
O43          C52   1.263       .  A
O44          V48   1.890       .  S
O44          C51   1.264   1_455  A
O45          V48   1.895       .  S
O45          C50   1.265       .  A
O46          V48   1.896       .  S
O46          C49   1.263   1_455  A
V47          V48   2.086       .  T
C49        C2626   1.479       .  S
C50        C2453   1.484       .  S
C51        C2554   1.479       .  S
C52        C2477   1.466       .  S
O53          V61   1.890       .  S
O53          C63   1.263   1_545  A
O54          V61   1.895       .  S
O54          C64   1.263       .  A
O55          V61   1.894       .  S
O55          C65   1.264   1_545  A
O56          V61   1.898       .  S
O56          C66   1.264       .  A
O57          V62   1.895       .  S
O57          C66   1.264       .  A
O58          V62   1.895       .  S
O58          C65   1.263   1_545  A
O59          V62   1.900       .  S
O59          C64   1.265       .  A
O60          V62   1.904       .  S
O60          C63   1.266   1_545  A
V61          V62   2.086       .  T
C63        C2698   1.482       .  S
C64        C2410   1.477       .  S
C65        C2578   1.474       .  S
C66        C2429   1.477       .  S
C67          N68   1.355       .  A
C67          N72   1.357       .  A
C67        C2357   1.478       .  S
N68          C69   1.355       .  A
C69          N70   1.356       .  A
C69        C2381   1.473       .  S
N70          C71   1.357       .  A
C71          N72   1.357       .  A
C71        C2530   1.477       .  S
C73          N74   1.359       .  A
C73          N78   1.358       .  A
C73        C2309   1.478       .  S
N74          C75   1.359       .  A
C75          N76   1.357       .  A
C75        C2434   1.478       .  S
N76          C77   1.357       .  A
C77          N78   1.357       .  A
C77        C2333   1.483       .  S
C79          N80   1.353       .  A
C79          N84   1.357       .  A
C79        C2482   1.482       .  S
N80          C81   1.353       .  A
C81          N82   1.355       .  A
C81        C2285   1.473       .  S
N82          C83   1.356       .  A
C83          N84   1.357       .  A
C83        C2261   1.478       .  S
C85          N86   1.358       .  A
C85          N90   1.357       .  A
C85        C2237   1.478       .  S
N86          C87   1.358       .  A
C87          N88   1.354       .  A
C87        C2213   1.478       .  S
N88          C89   1.354       .  A
C89          N90   1.354       .  A
C89        C2194   1.460       .  S
O91          V99   1.888   1_655  S
O91         C101   1.263       .  A
O92          V99   1.889       .  S
O92         C102   1.262       .  A
O93          V99   1.893   1_655  S
O93         C103   1.264       .  A
O94          V99   1.893       .  S
O94         C104   1.263       .  A
O95         V100   1.897       .  S
O95         C104   1.265       .  A
O96         V100   1.901   1_655  S
O96         C103   1.265       .  A
O97         V100   1.898       .  S
O97         C102   1.264       .  A
O98         V100   1.897       .  S
O98         C101   1.264   1_455  A
V99         V100   2.085       .  T
C101       C2189   1.483       .  S
C102       C2141   1.474       .  S
C103       C2170   1.484       .  S
C104       C2122   1.482       .  S
C105        N106   1.359       .  A
C105        N110   1.360       .  A
C105       C2506   1.493       .  S
N106        C107   1.360       .  A
C107        N108   1.357       .  A
C107       C2098   1.481       .  S
N108        C109   1.356       .  A
C109        N110   1.357       .  A
C109       C2165   1.475       .  S
C111        N112   1.355       .  A
C111        N116   1.359       .  A
C111       C2069   1.468       .  S
N112        C113   1.355       .  A
C113        N114   1.354       .  A
C113       C2045   1.471       .  S
N114        C115   1.358       .  A
C115        N116   1.358       .  A
C115       C2026   1.489       .  S
O117        V125   1.898   1_565  S
O117        C127   1.265       .  A
O118        V125   1.903       .  S
O118        C128   1.265       .  A
O119        V125   1.893   1_565  S
O119        C129   1.262       .  A
O120        V125   1.894       .  S
O120        C130   1.264       .  A
O121        V126   1.894       .  S
O121        C130   1.263       .  A
O122        V126   1.894   1_565  S
O122        C129   1.264       .  A
O123        V126   1.896       .  S
O123        C128   1.263       .  A
O124        V126   1.898   1_565  S
O124        C127   1.264       .  A
V125        V126   2.086       .  T
C127       C2093   1.488       .  S
C128       C1997   1.472       .  S
C129       C2021   1.469       .  S
C130       C1978   1.473       .  S
C131        N132   1.360       .  A
C131        N136   1.360       .  A
C131       C1949   1.487       .  S
N132        C133   1.359       .  A
C133        N134   1.357       .  A
C133       C1906   1.482       .  S
N134        C135   1.356       .  A
C135        N136   1.358       .  A
C135       C1930   1.479       .  S
O137        V145   1.901       .  S
O137        C147   1.265       .  A
O138        V145   1.902       .  S
O138        C148   1.265   1_545  A
O139        V145   1.900       .  S
O139        C149   1.265       .  A
O140        V145   1.898       .  S
O140        C150   1.265   1_545  A
O141        V146   1.898       .  S
O141        C150   1.264   1_545  A
O142        V146   1.899       .  S
O142        C149   1.264       .  A
O143        V146   1.896       .  S
O143        C148   1.264   1_545  A
O144        V146   1.895       .  S
O144        C147   1.263       .  A
V145        V146   2.085       .  T
C147       C1829   1.479       .  S
C148       C1901   1.484       .  S
C149       C1858   1.484       .  S
C150       C1877   1.487       .  S
C151        N152   1.356       .  A
C151        N156   1.357       .  A
C151       C1882   1.476       .  S
N152        C153   1.360       .  A
C153        N154   1.357       .  A
C153       C1805   1.492       .  S
N154        C155   1.356       .  A
C155        N156   1.357       .  A
C155       C2458   1.471       .  S
C157        N158   1.358       .  A
C157        N162   1.356       .  A
C157       C1733   1.469       .  S
N158        C159   1.358       .  A
C159        N160   1.357       .  A
C159       C1762   1.488       .  S
N160        C161   1.354       .  A
C161        N162   1.357       .  A
C161       C1786   1.476       .  S
O163        V171   1.900       .  S
O163        C173   1.265   1_556  A
O164        V171   1.898       .  S
O164        C174   1.265       .  A
O165        V171   1.894   1_554  S
O165        C175   1.263       .  A
O166        V171   1.893       .  S
O166        C176   1.262       .  A
O167        V172   1.893       .  S
O167        C176   1.263       .  A
O168        V172   1.894   1_554  S
O168        C175   1.264       .  A
O169        V172   1.895       .  S
O169        C174   1.264       .  A
O170        V172   1.890   1_554  S
O170        C173   1.264       .  A
V171        V172   2.086       .  T
C173       C1690   1.484       .  S
C174       C1738   1.482       .  S
C175       C1709   1.476       .  S
C176       C1810   1.468       .  S
C177        N178   1.355       .  A
C177        N182   1.357       .  A
C177       C1637   1.469       .  S
N178        C179   1.354       .  A
C179        N180   1.356       .  A
C179       C1666   1.486       .  S
N180        C181   1.358       .  A
C181        N182   1.358       .  A
C181       C1613   1.490       .  S
O183        V191   1.901       .  S
O183        C193   1.266   1_455  A
O184        V191   1.901       .  S
O184        C194   1.265       .  A
O185        V191   1.896       .  S
O185        C195   1.263   1_455  A
O186        V191   1.892       .  S
O186        C196   1.263       .  A
O187        V192   1.892       .  S
O187        C196   1.263       .  A
O188        V192   1.891       .  S
O188        C195   1.263   1_455  A
O189        V192   1.889       .  S
O189        C194   1.262       .  A
O190        V192   1.893       .  S
O190        C193   1.263   1_455  A
V191        V192   2.086       .  T
C193       C1594   1.483       .  S
C194       C1565   1.479       .  S
C195       C1618   1.473       .  S
C196       C1546   1.473       .  S
C197        N198   1.358       .  A
C197        N202   1.361       .  A
C197       C2405   1.482       .  S
N198        C199   1.355       .  A
C199        N200   1.355       .  A
C199       C1517   1.480       .  S
N200        C201   1.357       .  A
C201        N202   1.361       .  A
C201       C1589   1.490       .  S
C203        N204   1.360       .  A
C203        N208   1.361       .  A
C203       C1493   1.489       .  S
N204        C205   1.357       .  A
C205        N206   1.355       .  A
C205       C1474   1.483       .  S
N206        C207   1.356       .  A
C207        N208   1.360       .  A
C207       C1445   1.483       .  S
O209        V217   1.895       .  S
O209        C219   1.263       .  A
O210        V217   1.897       .  S
O210        C220   1.265   1_556  A
O211        V217   1.900       .  S
O211        C221   1.264       .  A
O212        V217   1.894       .  S
O212        C222   1.264   1_556  A
O213        V218   1.894       .  S
O213        C222   1.264   1_556  A
O214        V218   1.894       .  S
O214        C221   1.265       .  A
O215        V218   1.899       .  S
O215        C220   1.265   1_556  A
O216        V218   1.899       .  S
O216        C219   1.265       .  A
V217        V218   2.084       .  T
C219       C1522   1.481       .  S
C220       C1421   1.489       .  S
C221       C1450   1.487       .  S
C222       C1402   1.481       .  S
C223        N224   1.357       .  A
C223        N228   1.357       .  A
C223       C1373   1.476       .  S
N224        C225   1.357       .  A
C225        N226   1.357       .  A
C225       C1426   1.475       .  S
N226        C227   1.357       .  A
C227        N228   1.357       .  A
C227       C1349   1.474       .  S
C229        N230   1.358       .  A
C229        N234   1.356       .  A
C229       C1325   1.479       .  S
N230        C231   1.358       .  A
C231        N232   1.356       .  A
C231       C1301   1.468       .  S
N232        C233   1.355       .  A
C233        N234   1.355       .  A
C233       C1714   1.477       .  S
C235        N236   1.353       .  A
C235        N240   1.357       .  A
C235       C1277   1.484       .  S
N236        C237   1.352       .  A
C237        N238   1.360       .  A
C237       C1258   1.479       .  S
N238        C239   1.363       .  A
C239        N240   1.362       .  A
C239       C2002   1.498       .  S
C241        N242   1.354       .  A
C241        N246   1.358       .  A
C241       C1234   1.481       .  S
N242        C243   1.355       .  A
C243        N244   1.357       .  A
C243       C1205   1.478       .  S
N244        C245   1.360       .  A
C245        N246   1.359       .  A
C245       C1186   1.491       .  S
C247        N248   1.360       .  A
C247        N252   1.357       .  A
C247       C1157   1.481       .  S
N248        C249   1.360       .  A
C249        N250   1.356       .  A
C249       C2146   1.484       .  S
N250        C251   1.354       .  A
C251        N252   1.355       .  A
C251       C1685   1.476       .  S
C253        N254   1.357       .  A
C253        N258   1.358       .  A
C253       C1090   1.482       .  S
N254        C255   1.354       .  A
C255        N256   1.353       .  A
C255       C1133   1.469       .  S
N256        C257   1.354       .  A
C257        N258   1.358       .  A
C257       C1109   1.474       .  S
O259        V267   1.899       .  S
O259        C269   1.264       .  A
O260        V267   1.896   1_565  S
O260        C270   1.265       .  A
O261        V267   1.895       .  S
O261        C271   1.265       .  A
O262        V267   1.892   1_565  S
O262        C272   1.262       .  A
O263        V268   1.900   1_565  S
O263        C272   1.265       .  A
O264        V268   1.899       .  S
O264        C271   1.264       .  A
O265        V268   1.896   1_565  S
O265        C270   1.264       .  A
O266        V268   1.895       .  S
O266        C269   1.263       .  A
V267        V268   2.085       .  T
C269       C1181   1.471       .  S
C270       C1162   1.482       .  S
C271       C1066   1.484       .  S
C272       C1085   1.475       .  S
C273        N274   1.360       .  A
C273        N278   1.360       .  A
C273       C1853   1.489       .  S
N274        C275   1.358       .  A
C275        N276   1.356       .  A
C275       C1013   1.472       .  S
N276        C277   1.357       .  A
C277        N278   1.360       .  A
C277       C1042   1.488       .  S
C279        N280   1.353       .  A
C279        N284   1.355       .  A
C279       C1570   1.469       .  S
N280        C281   1.354       .  A
C281        N282   1.359       .  A
C281        C989   1.468       .  S
N282        C283   1.360       .  A
C283        N284   1.357       .  A
C283        C965   1.474       .  S
C285        N286   1.358       .  A
C285        N290   1.358       .  A
C285        C922   1.472       .  S
N286        C287   1.358       .  A
C287        N288   1.355       .  A
C287        C893   1.478       .  S
N288        C289   1.358       .  A
C289        N290   1.359       .  A
C289        C946   1.485       .  S
C291        N292   1.358       .  A
C291        N296   1.358       .  A
C291       C1973   1.482       .  S
N292        C293   1.355       .  A
C293        N294   1.355       .  A
C293        C869   1.470       .  S
N294        C295   1.356       .  A
C295        N296   1.358       .  A
C295       C1397   1.477       .  S
C297        N298   1.358       .  A
C297        N302   1.361       .  A
C297        C845   1.494       .  S
N298        C299   1.358       .  A
C299        N300   1.356       .  A
C299        C797   1.483       .  S
N300        C301   1.357       .  A
C301        N302   1.360       .  A
C301        C821   1.482       .  S
O303        V311   1.893       .  S
O303        C313   1.264       .  A
O304        V311   1.897   1_655  S
O304        C314   1.265       .  A
O305        V311   1.897       .  S
O305        C315   1.263       .  A
O306        V311   1.896   1_655  S
O306        C316   1.264       .  A
O307        V312   1.903   1_655  S
O307        C316   1.265       .  A
O308        V312   1.903       .  S
O308        C315   1.265       .  A
O309        V312   1.894   1_655  S
O309        C314   1.263       .  A
O310        V312   1.901       .  S
O310        C313   1.265       .  A
V311        V312   2.085       .  T
C313        C898   1.486       .  S
C314        C874   1.485       .  S
C315        C773   1.477       .  S
C316        C802   1.483       .  S
C317        N318   1.359       .  A
C317        N322   1.355       .  A
C317        C749   1.483       .  S
N318        C319   1.359       .  A
C319        N320   1.358       .  A
C319        C725   1.481       .  S
N320        C321   1.356       .  A
C321        N322   1.355       .  A
C321       C2117   1.475       .  S
C323        N324   1.359       .  A
C323        N328   1.355       .  A
C323       C1061   1.476       .  S
N324        C325   1.361       .  A
C325        N326   1.362       .  A
C325        C778   1.500       .  S
N326        C327   1.359       .  A
C327        N328   1.355       .  A
C327        C701   1.490       .  S
C329        N330   1.360       .  A
C329        N334   1.355       .  A
C329        C653   1.483       .  S
N330        C331   1.360       .  A
C331        N332   1.359       .  A
C331        C682   1.484       .  S
N332        C333   1.358       .  A
C333        N334   1.357       .  A
C333        C634   1.483       .  S
C335        N336   1.358       .  A
C335        N340   1.361       .  A
C335       C1834   1.485       .  S
N336        C337   1.356       .  A
C337        N338   1.353       .  A
C337       C1541   1.478       .  S
N338        C339   1.353       .  A
C339        N340   1.359       .  A
C339        C605   1.473       .  S
C341        N342   1.359       .  A
C341        N346   1.353       .  A
C341        C581   1.468       .  S
N342        C343   1.360       .  A
C343        N344   1.361       .  A
C343        C538   1.494       .  S
N344        C345   1.355       .  A
C345        N346   1.351       .  A
C345        C557   1.474       .  S
O347        V355   1.898   1_554  S
O347        C357   1.265       .  A
O348        V355   1.897       .  S
O348        C358   1.265       .  A
O349        V355   1.896   1_554  S
O349        C359   1.264       .  A
O350        V355   1.895       .  S
O350        C360   1.263       .  A
O351        V356   1.899       .  S
O351        C360   1.264       .  A
O352        V356   1.900   1_554  S
O352        C359   1.264       .  A
O353        V356   1.892       .  S
O353        C358   1.263       .  A
O354        V356   1.894   1_554  S
O354        C357   1.264       .  A
V355        V356   2.084       .  T
C357        C629   1.482       .  S
C358        C610   1.485       .  S
C359        C706   1.481       .  S
C360        C533   1.474       .  S
O361        V369   1.894       .  S
O361        C371   1.264       .  A
O362        V369   1.895       .  S
O362        C372   1.263       .  A
O363        V369   1.900       .  S
O363        C373   1.265       .  A
O364        V369   1.906       .  S
O364        C374   1.266       .  A
O365        V370   1.892       .  S
O365        C374   1.263       .  A
O366        V370   1.894       .  S
O366        C373   1.263       .  A
O367        V370   1.896       .  S
O367        C372   1.264       .  A
O368        V370   1.895       .  S
O368        C371   1.263       .  A
V369        V370   2.085       .  T
C371       C1306   1.484       .  S
C372        C941   1.474       .  S
C373        C730   1.481       .  S
C374        C658   1.484       .  S
O375        V383   1.896       .  S
O375        C385   1.264       .  A
O376        V383   1.896       .  S
O376        C386   1.264       .  A
O377        V383   1.899       .  S
O377        C387   1.265       .  A
O378        V383   1.899       .  S
O378        C388   1.265       .  A
O379        V384   1.891       .  S
O379        C388   1.262       .  A
O380        V384   1.890       .  S
O380        C387   1.262       .  A
O381        V384   1.900       .  S
O381        C386   1.265       .  A
O382        V384   1.901       .  S
O382        C385   1.266       .  A
V383        V384   2.085       .  T
C385       C1253   1.486       .  S
C386        C677   1.482       .  S
C387       C1354   1.480       .  S
C388       C1210   1.480       .  S
O389        V397   1.899       .  S
O389        C399   1.265       .  A
O390        V397   1.898       .  S
O390        C400   1.264       .  A
O391        V397   1.900       .  S
O391        C401   1.265       .  A
O392        V397   1.901       .  S
O392        C402   1.266       .  A
O393        V398   1.897       .  S
O393        C402   1.264       .  A
O394        V398   1.897       .  S
O394        C401   1.264       .  A
O395        V398   1.895       .  S
O395        C400   1.264       .  A
O396        V398   1.894       .  S
O396        C399   1.263       .  A
V397        V398   2.084       .  T
C399        C970   1.486       .  S
C400       C1229   1.482       .  S
C401       C1018   1.490       .  S
C402        C917   1.489       .  S
O403        V411   1.901       .  S
O403        C413   1.265       .  A
O404        V411   1.903       .  S
O404        C414   1.266       .  A
O405        V411   1.891       .  S
O405        C415   1.263       .  A
O406        V411   1.893       .  S
O406        C416   1.263       .  A
O407        V412   1.888       .  S
O407        C416   1.262       .  A
O408        V412   1.891       .  S
O408        C415   1.263       .  A
O409        V412   1.890       .  S
O409        C414   1.262       .  A
O410        V412   1.889       .  S
O410        C413   1.262       .  A
V411        V412   2.087       .  T
C413        C754   1.471       .  S
C414       C1925   1.484       .  S
C415       C1138   1.474       .  S
C416       C2290   1.470       .  S
O417        V425   1.903       .  S
O417        C427   1.266       .  A
O418        V425   1.900       .  S
O418        C428   1.266       .  A
O419        V425   1.892       .  S
O419        C429   1.262       .  A
O420        V425   1.895       .  S
O420        C430   1.264       .  A
O421        V426   1.905       .  S
O421        C430   1.266       .  A
O422        V426   1.905       .  S
O422        C429   1.266       .  A
O423        V426   1.883       .  S
O423        C428   1.260       .  A
O424        V426   1.883       .  S
O424        C427   1.260       .  A
V425        V426   2.086       .  T
C427       C1282   1.475       .  S
C428       C1642   1.480       .  S
C429        C850   1.478       .  S
C430       C2338   1.486       .  S
O431        V439   1.890       .  S
O431        C441   1.263       .  A
O432        V439   1.891       .  S
O432        C442   1.262       .  A
O433        V439   1.900       .  S
O433        C443   1.265       .  A
O434        V439   1.901       .  S
O434        C444   1.265       .  A
O435        V440   1.888       .  S
O435        C444   1.262       .  A
O436        V440   1.890       .  S
O436        C443   1.262       .  A
O437        V440   1.893       .  S
O437        C442   1.263       .  A
O438        V440   1.891       .  S
O438        C441   1.263       .  A
V439        V440   2.086       .  T
C441        C586   1.477       .  S
C442       C2266   1.472       .  S
C443        C994   1.482       .  S
C444       C1757   1.474       .  S
O445        V453   1.891       .  S
O445        C455   1.262       .  A
O446        V453   1.893       .  S
O446        C456   1.264       .  A
O447        V453   1.891       .  S
O447        C457   1.262       .  A
O448        V453   1.891       .  S
O448        C458   1.264       .  A
O449        V454   1.896       .  S
O449        C458   1.264       .  A
O450        V454   1.893       .  S
O450        C457   1.264       .  A
O451        V454   1.900       .  S
O451        C456   1.264       .  A
O452        V454   1.896       .  S
O452        C455   1.264       .  A
V453        V454   2.086       .  T
C455       C2362   1.474       .  S
C456        C826   1.482       .  S
C457       C2218   1.475       .  S
C458       C1378   1.478       .  S
O459        V467   1.896       .  S
O459        C469   1.264       .  A
O460        V467   1.895       .  S
O460        C470   1.263       .  A
O461        V467   1.887       .  S
O461        C471   1.262       .  A
O462        V467   1.890       .  S
O462        C472   1.263       .  A
O463        V468   1.904       .  S
O463        C472   1.266       .  A
O464        V468   1.902       .  S
O464        C471   1.266       .  A
O465        V468   1.898       .  S
O465        C470   1.264       .  A
O466        V468   1.898       .  S
O466        C469   1.264       .  A
V467        V468   2.085       .  T
C469       C1037   1.477       .  S
C470       C1469   1.473       .  S
C471        C562   1.484       .  S
C472       C2314   1.484       .  S
O473        V481   1.894       .  S
O473        C483   1.263       .  A
O474        V481   1.890       .  S
O474        C484   1.263       .  A
O475        V481   1.894       .  S
O475        C485   1.263       .  A
O476        V481   1.894       .  S
O476        C486   1.264       .  A
O477        V482   1.895       .  S
O477        C486   1.263       .  A
O478        V482   1.894       .  S
O478        C485   1.264       .  A
O479        V482   1.893       .  S
O479        C484   1.264       .  A
O480        V482   1.892       .  S
O480        C483   1.264       .  A
V481        V482   2.086       .  T
C483       C2386   1.480       .  S
C484       C1114   1.476       .  S
C485       C2050   1.479       .  S
C486       C1330   1.478       .  S
O487        V495   1.891       .  S
O487        C497   1.262       .  A
O488        V495   1.892       .  S
O488        C498   1.264       .  A
O489        V495   1.902       .  S
O489        C499   1.266       .  A
O490        V495   1.904       .  S
O490        C500   1.266       .  A
O491        V496   1.887       .  S
O491        C500   1.262       .  A
O492        V496   1.888       .  S
O492        C499   1.261       .  A
O493        V496   1.896       .  S
O493        C498   1.264       .  A
O494        V496   1.897       .  S
O494        C497   1.265       .  A
V495        V496   2.085       .  T
C497       C2074   1.484       .  S
C498       C2674   1.482       .  S
C499       C2242   1.483       .  S
C500       C2746   1.480       .  S
O501        V509   1.900       .  S
O501        C511   1.265       .  A
O502        V509   1.898       .  S
O502        C512   1.264       .  A
O503        V509   1.896       .  S
O503        C513   1.264       .  A
O504        V509   1.896       .  S
O504        C514   1.265       .  A
O505        V510   1.896       .  S
O505        C514   1.264       .  A
O506        V510   1.896       .  S
O506        C513   1.263       .  A
O507        V510   1.897       .  S
O507        C512   1.264       .  A
O508        V510   1.897       .  S
O508        C511   1.263       .  A
V509        V510   2.087       .  T
C511       C1498   1.476       .  S
C512       C2650   1.480       .  S
C513       C1661   1.473       .  S
C514       C2813   1.487       .  S
O515        V523   1.902       .  S
O515        C525   1.266       .  A
O516        V523   1.902       .  S
O516        C526   1.265       .  A
O517        V523   1.899       .  S
O517        C527   1.264       .  A
O518        V523   1.897       .  S
O518        C528   1.263       .  A
O519        V524   1.888       .  S
O519        C528   1.262       .  A
O520        V524   1.892       .  S
O520        C527   1.264       .  A
O521        V524   1.901       .  S
O521        C526   1.265       .  A
O522        V524   1.897       .  S
O522        C525   1.265       .  A
V523        V524   2.086       .  T
C525       C2794   1.488       .  S
C526       C1954   1.487       .  S
C527       C2722   1.478       .  S
C528       C1781   1.470       .  S
C529        C530   1.412       .  A
C529        C534   1.399       .  A
C529        C543   1.444       .  S
C530        C535   1.485       .  S
C530        C531   1.404       .  A
C531        C532   1.399       .  A
C531        H550   1.085       .  S
C532        C533   1.410       .  A
C532        C544   1.444       .  S
C533        C534   1.403       .  A
C534        H549   1.085       .  S
C535        C536   1.402       .  A
C535        C540   1.408       .  A
C536        C537   1.402       .  A
C536        H551   1.085       .  S
C537        C538   1.421       .  A
C537        C541   1.443       .  S
C538        C539   1.410       .  A
C539        C540   1.396       .  A
C539        H552   1.083       .  S
C540        C542   1.445       .  S
C541        N545   1.157       .  T
C542        N546   1.157       .  T
C543        N548   1.157       .  T
C544        N547   1.157       .  T
C553        C554   1.410       .  A
C553        C558   1.397       .  A
C553        C567   1.444       .  S
C554        C559   1.480       .  S
C554        C555   1.403       .  A
C555        C556   1.397       .  A
C555        H574   1.085       .  S
C556        C557   1.413       .  A
C556        C568   1.444       .  S
C557        C558   1.404       .  A
C558        H573   1.085       .  S
C559        C560   1.399       .  A
C559        C564   1.410       .  A
C560        C561   1.395       .  A
C560        H575   1.085       .  S
C561        C562   1.419       .  A
C561        C565   1.444       .  S
C562        C563   1.407       .  A
C563        C564   1.399       .  A
C563        H576   1.084       .  S
C564        C566   1.444       .  S
C565        N569   1.157       .  T
C566        N570   1.157       .  T
C567        N572   1.157       .  T
C568        N571   1.157       .  T
C577        C578   1.408       .  A
C577        C582   1.393       .  A
C577        C591   1.445       .  S
C578        C583   1.474       .  S
C578        C579   1.404       .  A
C579        C580   1.399       .  A
C579        H598   1.085       .  S
C580        C581   1.409       .  A
C580        C592   1.443       .  S
C581        C582   1.403       .  A
C582        H597   1.085       .  S
C583        C584   1.400       .  A
C583        C588   1.408       .  A
C584        C585   1.396       .  A
C584        H599   1.085       .  S
C585        C586   1.416       .  A
C585        C589   1.444       .  S
C586        C587   1.406       .  A
C587        C588   1.396       .  A
C587        H600   1.085       .  S
C588        C590   1.444       .  S
C589        N593   1.157       .  T
C590        N594   1.157       .  T
C591        N596   1.157       .  T
C592        N595   1.157       .  T
C601        C602   1.413       .  A
C601        C606   1.399       .  A
C601        C615   1.444       .  S
C602        C607   1.482       .  S
C602        C603   1.401       .  A
C603        C604   1.397       .  A
C603        H622   1.085       .  S
C604        C605   1.414       .  A
C604        C616   1.445       .  S
C605        C606   1.401       .  A
C606        H621   1.085       .  S
C607        C608   1.400       .  A
C607        C612   1.410       .  A
C608        C609   1.396       .  A
C608        H623   1.085       .  S
C609        C610   1.418       .  A
C609        C613   1.444       .  S
C610        C611   1.408       .  A
C611        C612   1.399       .  A
C611        H624   1.084       .  S
C612        C614   1.444       .  S
C613        N617   1.157       .  T
C614        N618   1.157       .  T
C615        N620   1.157       .  T
C616        N619   1.157       .  T
C625        C626   1.410       .  A
C625        C630   1.399       .  A
C625        C639   1.444       .  S
C626        C631   1.485       .  S
C626        C627   1.403       .  A
C627        C628   1.398       .  A
C627        H646   1.085       .  S
C628        C629   1.415       .  A
C628        C640   1.444       .  S
C629        C630   1.406       .  A
C630        H645   1.085       .  S
C631        C632   1.404       .  A
C631        C636   1.410       .  A
C632        C633   1.401       .  A
C632        H647   1.085       .  S
C633        C634   1.415       .  A
C633        C637   1.444       .  S
C634        C635   1.406       .  A
C635        C636   1.396       .  A
C635        H648   1.085       .  S
C636        C638   1.445       .  S
C637        N641   1.157       .  T
C638        N642   1.157       .  T
C639        N644   1.157       .  T
C640        N643   1.157       .  T
C649        C650   1.411       .  A
C649        C654   1.398       .  A
C649        C663   1.444       .  S
C650        C655   1.486       .  S
C650        C651   1.403       .  A
C651        C652   1.402       .  A
C651        H670   1.085       .  S
C652        C653   1.416       .  A
C652        C664   1.444       .  S
C653        C654   1.403       .  A
C654        H669   1.082       .  S
C655        C656   1.401       .  A
C655        C660   1.411       .  A
C656        C657   1.397       .  A
C656        H671   1.085       .  S
C657        C658   1.416       .  A
C657        C661   1.444       .  S
C658        C659   1.406       .  A
C659        C660   1.403       .  A
C659        H672   1.085       .  S
C660        C662   1.444       .  S
C661        N665   1.157       .  T
C662        N666   1.157       .  T
C663        N668   1.157       .  T
C664        N667   1.157       .  T
C673        C674   1.410       .  A
C673        C678   1.399       .  A
C673        C687   1.444       .  S
C674        C679   1.482       .  S
C674        C675   1.402       .  A
C675        C676   1.401       .  A
C675        H694   1.085       .  S
C676        C677   1.415       .  A
C676        C688   1.444       .  S
C677        C678   1.405       .  A
C678        H693   1.085       .  S
C679        C680   1.400       .  A
C679        C684   1.409       .  A
C680        C681   1.399       .  A
C680        H695   1.085       .  S
C681        C682   1.415       .  A
C681        C685   1.443       .  S
C682        C683   1.407       .  A
C683        C684   1.401       .  A
C683        H696   1.084       .  S
C684        C686   1.444       .  S
C685        N689   1.157       .  T
C686        N690   1.157       .  T
C687        N692   1.157       .  T
C688        N691   1.157       .  T
C697        C698   1.411       .  A
C697        C702   1.399       .  A
C697        C711   1.445       .  S
C698        C703   1.490       .  S
C698        C699   1.404       .  A
C699        C700   1.401       .  A
C699        H718   1.085       .  S
C700        C701   1.416       .  A
C700        C712   1.444       .  S
C701        C702   1.408       .  A
C702        H717   1.084       .  S
C703        C704   1.405       .  A
C703        C708   1.413       .  A
C704        C705   1.402       .  A
C704        H719   1.085       .  S
C705        C706   1.414       .  A
C705        C709   1.445       .  S
C706        C707   1.403       .  A
C707        C708   1.398       .  A
C707        H720   1.085       .  S
C708        C710   1.444       .  S
C709        N713   1.157   1_554  T
C710        N714   1.157       .  T
C711        N716   1.157       .  T
C712        N715   1.157       .  T
C721        C722   1.409       .  A
C721        C726   1.398       .  A
C721        C735   1.444       .  S
C722        C727   1.482       .  S
C722        C723   1.402       .  A
C723        C724   1.399       .  A
C723        H742   1.085       .  S
C724        C725   1.414       .  A
C724        C736   1.444       .  S
C725        C726   1.406       .  A
C726        H741   1.085       .  S
C727        C728   1.401       .  A
C727        C732   1.410       .  A
C728        C729   1.399       .  A
C728        H743   1.085       .  S
C729        C730   1.416       .  A
C729        C733   1.444       .  S
C730        C731   1.405       .  A
C731        C732   1.398       .  A
C731        H744   1.085       .  S
C732        C734   1.445       .  S
C733        N737   1.157       .  T
C734        N738   1.157       .  T
C735        N740   1.157       .  T
C736        N739   1.157       .  T
C745        C746   1.409       .  A
C745        C750   1.397       .  A
C745        C759   1.444       .  S
C746        C751   1.479       .  S
C746        C747   1.400       .  A
C747        C748   1.399       .  A
C747        H766   1.085       .  S
C748        C749   1.418       .  A
C748        C760   1.445       .  S
C749        C750   1.406       .  A
C750        H765   1.084       .  S
C751        C752   1.404       .  A
C751        C756   1.409       .  A
C752        C753   1.400       .  A
C752        H767   1.085       .  S
C753        C754   1.410       .  A
C753        C757   1.444       .  S
C754        C755   1.403       .  A
C755        C756   1.396       .  A
C755        H768   1.085       .  S
C756        C758   1.444       .  S
C757        N761   1.157       .  T
C758        N762   1.157       .  T
C759        N764   1.157       .  T
C760        N763   1.157       .  T
C769        C770   1.412       .  A
C769        C774   1.400       .  A
C769        C783   1.444       .  S
C770        C775   1.490       .  S
C770        C771   1.405       .  A
C771        C772   1.402       .  A
C771        H790   1.085       .  S
C772        C773   1.412       .  A
C772        C784   1.444       .  S
C773        C774   1.403       .  A
C774        H789   1.085       .  S
C775        C776   1.402       .  A
C775        C780   1.408       .  A
C776        C777   1.403       .  A
C776        H791   1.085       .  S
C777        C778   1.422       .  A
C777        C781   1.443       .  S
C778        C779   1.411       .  A
C779        C780   1.400       .  A
C779        H792   1.083       .  S
C780        C782   1.444       .  S
C781        N785   1.157       .  T
C782        N786   1.157       .  T
C783        N788   1.157       .  T
C784        N787   1.157       .  T
C793        C794   1.410       .  A
C793        C798   1.399       .  A
C793        C807   1.444       .  S
C794        C799   1.484       .  S
C794        C795   1.401       .  A
C795        C796   1.401       .  A
C795        H814   1.085       .  S
C796        C797   1.416       .  A
C796        C808   1.444       .  S
C797        C798   1.406       .  A
C798        H813   1.085       .  S
C799        C800   1.402       .  A
C799        C804   1.409       .  A
C800        C801   1.402       .  A
C800        H815   1.085       .  S
C801        C802   1.415       .  A
C801        C805   1.444       .  S
C802        C803   1.406       .  A
C803        C804   1.399       .  A
C803        H816   1.085       .  S
C804        C806   1.444       .  S
C805        N809   1.157       .  T
C806        N810   1.157       .  T
C807        N812   1.157       .  T
C808        N811   1.157       .  T
C817        C818   1.409       .  A
C817        C822   1.400       .  A
C817        C831   1.444       .  S
C818        C823   1.484       .  S
C818        C819   1.402       .  A
C819        C820   1.398       .  A
C819        H838   1.085       .  S
C820        C821   1.414       .  A
C820        C832   1.443       .  S
C821        C822   1.407       .  A
C822        H837   1.084       .  S
C823        C824   1.404       .  A
C823        C828   1.409       .  A
C824        C825   1.401       .  A
C824        H839   1.085       .  S
C825        C826   1.415       .  A
C825        C829   1.444       .  S
C826        C827   1.406       .  A
C827        C828   1.397       .  A
C827        H840   1.085       .  S
C828        C830   1.444       .  S
C829        N833   1.157       .  T
C830        N834   1.157       .  T
C831        N836   1.157       .  T
C832        N835   1.157       .  T
C841        C842   1.411       .  A
C841        C846   1.400       .  A
C841        C855   1.445       .  S
C842        C847   1.489       .  S
C842        C843   1.402       .  A
C843        C844   1.401       .  A
C843        H862   1.085       .  S
C844        C845   1.420       .  A
C844        C856   1.444       .  S
C845        C846   1.408       .  A
C846        H861   1.082       .  S
C847        C848   1.406       .  A
C847        C852   1.412       .  A
C848        C849   1.402       .  A
C848        H863   1.085       .  S
C849        C850   1.411       .  A
C849        C853   1.444       .  S
C850        C851   1.404       .  A
C851        C852   1.399       .  A
C851        H864   1.085       .  S
C852        C854   1.444       .  S
C853        N857   1.157       .  T
C854        N858   1.157       .  T
C855        N860   1.157       .  T
C856        N859   1.157       .  T
C865        C866   1.410       .  A
C865        C870   1.398       .  A
C865        C879   1.444       .  S
C866        C871   1.479       .  S
C866        C867   1.402       .  A
C867        C868   1.398       .  A
C867        H886   1.085       .  S
C868        C869   1.411       .  A
C868        C880   1.444       .  S
C869        C870   1.402       .  A
C870        H885   1.085       .  S
C871        C872   1.400       .  A
C871        C876   1.407       .  A
C872        C873   1.398       .  A
C872        H887   1.085       .  S
C873        C874   1.418       .  A
C873        C877   1.444       .  S
C874        C875   1.408       .  A
C875        C876   1.399       .  A
C875        H888   1.084       .  S
C876        C878   1.444       .  S
C877        N881   1.157       .  T
C878        N882   1.157       .  T
C879        N884   1.157       .  T
C880        N883   1.157       .  T
C889        C890   1.409       .  A
C889        C894   1.401       .  A
C889        C903   1.444       .  S
C890        C895   1.482       .  S
C890        C891   1.402       .  A
C891        C892   1.398       .  A
C891        H910   1.085       .  S
C892        C893   1.413       .  A
C892        C904   1.444       .  S
C893        C894   1.406       .  A
C894        H909   1.085       .  S
C895        C896   1.402       .  A
C895        C900   1.407       .  A
C896        C897   1.403       .  A
C896        H911   1.085       .  S
C897        C898   1.418       .  A
C897        C901   1.444       .  S
C898        C899   1.407       .  A
C899        C900   1.396       .  A
C899        H912   1.084       .  S
C900        C902   1.444       .  S
C901        N905   1.157       .  T
C902        N906   1.157       .  T
C903        N908   1.157       .  T
C904        N907   1.157       .  T
C913        C914   1.411       .  A
C913        C918   1.400       .  A
C913        C927   1.444       .  S
C914        C919   1.488       .  S
C914        C915   1.402       .  A
C915        C916   1.401       .  A
C915        H934   1.085       .  S
C916        C917   1.418       .  A
C916        C928   1.444       .  S
C917        C918   1.407       .  A
C918        H933   1.084       .  S
C919        C920   1.405       .  A
C919        C924   1.413       .  A
C920        C921   1.401       .  A
C920        H935   1.085       .  S
C921        C922   1.409       .  A
C921        C925   1.443       .  S
C922        C923   1.401       .  A
C923        C924   1.399       .  A
C923        H936   1.085       .  S
C924        C926   1.444       .  S
C925        N929   1.157       .  T
C926        N930   1.157       .  T
C927        N932   1.157       .  T
C928        N931   1.157       .  T
C937        C938   1.409       .  A
C937        C942   1.398       .  A
C937        C951   1.444       .  S
C938        C943   1.478       .  S
C938        C939   1.401       .  A
C939        C940   1.399       .  A
C939        H958   1.085       .  S
C940        C941   1.414       .  A
C940        C952   1.445       .  S
C941        C942   1.403       .  A
C942        H957   1.085       .  S
C943        C944   1.401       .  A
C943        C948   1.406       .  A
C944        C945   1.401       .  A
C944        H959   1.085       .  S
C945        C946   1.416       .  A
C945        C949   1.443       .  S
C946        C947   1.408       .  A
C947        C948   1.396       .  A
C947        H960   1.084       .  S
C948        C950   1.445       .  S
C949        N953   1.157       .  T
C950        N954   1.157       .  T
C951        N956   1.157       .  T
C952        N955   1.157       .  T
C961        C962   1.411       .  A
C961        C966   1.399       .  A
C961        C975   1.444       .  S
C962        C967   1.483       .  S
C962        C963   1.404       .  A
C963        C964   1.400       .  A
C963        H982   1.085       .  S
C964        C965   1.411       .  A
C964        C976   1.444       .  S
C965        C966   1.403       .  A
C966        H981   1.085       .  S
C967        C968   1.400       .  A
C967        C972   1.410       .  A
C968        C969   1.399       .  A
C968        H983   1.085       .  S
C969        C970   1.418       .  A
C969        C973   1.444       .  S
C970        C971   1.407       .  A
C971        C972   1.399       .  A
C971        H984   1.085       .  S
C972        C974   1.445       .  S
C973        N977   1.157       .  T
C974        N978   1.157       .  T
C975        N980   1.157       .  T
C976        N979   1.157       .  T
C985        C986   1.408       .  A
C985        C990   1.397       .  A
C985        C999   1.444       .  S
C986        C991   1.475       .  S
C986        C987   1.402       .  A
C987        C988   1.400       .  A
C987       H1006   1.085       .  S
C988        C989   1.409       .  A
C988       C1000   1.443       .  S
C989        C990   1.402       .  A
C990       H1005   1.085       .  S
C991        C992   1.397       .  A
C991        C996   1.407       .  A
C992        C993   1.396       .  A
C992       H1007   1.085       .  S
C993        C994   1.418       .  A
C993        C997   1.444       .  S
C994        C995   1.407       .  A
C995        C996   1.400       .  A
C995       H1008   1.085       .  S
C996        C998   1.444       .  S
C997       N1001   1.157       .  T
C998       N1002   1.157       .  T
C999       N1004   1.157       .  T
C1000      N1003   1.157       .  T
C1009      C1010   1.410       .  A
C1009      C1014   1.398       .  A
C1009      C1023   1.444       .  S
C1010      C1015   1.481       .  S
C1010      C1011   1.403       .  A
C1011      C1012   1.402       .  A
C1011      H1030   1.085       .  S
C1012      C1013   1.410       .  A
C1012      C1024   1.443       .  S
C1013      C1014   1.402       .  A
C1014      H1029   1.085       .  S
C1015      C1016   1.400       .  A
C1015      C1020   1.407       .  A
C1016      C1017   1.399       .  A
C1016      H1031   1.085       .  S
C1017      C1018   1.419       .  A
C1017      C1021   1.444       .  S
C1018      C1019   1.409       .  A
C1019      C1020   1.401       .  A
C1019      H1032   1.084       .  S
C1020      C1022   1.444       .  S
C1021      N1025   1.157       .  T
C1022      N1026   1.157       .  T
C1023      N1028   1.157       .  T
C1024      N1027   1.157       .  T
C1033      C1034   1.410       .  A
C1033      C1038   1.398       .  A
C1033      C1047   1.444       .  S
C1034      C1039   1.483       .  S
C1034      C1035   1.403       .  A
C1035      C1036   1.401       .  A
C1035      H1054   1.085       .  S
C1036      C1037   1.413       .  A
C1036      C1048   1.444       .  S
C1037      C1038   1.404       .  A
C1038      H1053   1.085       .  S
C1039      C1040   1.400       .  A
C1039      C1044   1.409       .  A
C1040      C1041   1.400       .  A
C1040      H1055   1.085       .  S
C1041      C1042   1.418       .  A
C1041      C1045   1.444       .  S
C1042      C1043   1.407       .  A
C1043      C1044   1.400       .  A
C1043      H1056   1.084       .  S
C1044      C1046   1.444       .  S
C1045      N1049   1.157       .  T
C1046      N1050   1.157       .  T
C1047      N1052   1.157       .  T
C1048      N1051   1.157       .  T
C1057      C1058   1.410       .  A
C1057      C1062   1.396       .  A
C1057      C1071   1.445       .  S
C1058      C1063   1.482       .  S
C1058      C1059   1.404       .  A
C1059      C1060   1.403       .  A
C1059      H1078   1.085       .  S
C1060      C1061   1.411       .  A
C1060      C1072   1.443       .  S
C1061      C1062   1.403       .  A
C1062      H1077   1.085       .  S
C1063      C1064   1.401       .  A
C1063      C1068   1.409       .  A
C1064      C1065   1.400       .  A
C1064      H1079   1.085       .  S
C1065      C1066   1.416       .  A
C1065      C1069   1.444       .  S
C1066      C1067   1.407       .  A
C1067      C1068   1.398       .  A
C1067      H1080   1.085       .  S
C1068      C1070   1.444       .  S
C1069      N1073   1.157       .  T
C1070      N1074   1.157       .  T
C1071      N1076   1.157       .  T
C1072      N1075   1.157       .  T
C1081      C1082   1.410       .  A
C1081      C1086   1.398       .  A
C1081      C1095   1.444       .  S
C1082      C1087   1.479       .  S
C1082      C1083   1.401       .  A
C1083      C1084   1.399       .  A
C1083      H1102   1.085       .  S
C1084      C1085   1.414       .  A
C1084      C1096   1.445       .  S
C1085      C1086   1.403       .  A
C1086      H1101   1.085       .  S
C1087      C1088   1.400       .  A
C1087      C1092   1.409       .  A
C1088      C1089   1.396       .  A
C1088      H1103   1.085       .  S
C1089      C1090   1.417       .  A
C1089      C1093   1.445       .  S
C1090      C1091   1.407       .  A
C1091      C1092   1.399       .  A
C1091      H1104   1.085       .  S
C1092      C1094   1.444       .  S
C1093      N1097   1.157       .  T
C1094      N1098   1.157       .  T
C1095      N1100   1.157       .  T
C1096      N1099   1.157       .  T
C1105      C1106   1.409       .  A
C1105      C1110   1.395       .  A
C1105      C1119   1.445       .  S
C1106      C1111   1.476       .  S
C1106      C1107   1.400       .  A
C1107      C1108   1.397       .  A
C1107      H1126   1.085       .  S
C1108      C1109   1.415       .  A
C1108      C1120   1.444       .  S
C1109      C1110   1.403       .  A
C1110      H1125   1.085       .  S
C1111      C1112   1.400       .  A
C1111      C1116   1.408       .  A
C1112      C1113   1.395       .  A
C1112      H1127   1.085       .  S
C1113      C1114   1.415       .  A
C1113      C1117   1.444       .  S
C1114      C1115   1.406       .  A
C1115      C1116   1.397       .  A
C1115      H1128   1.085       .  S
C1116      C1118   1.444       .  S
C1117      N1121   1.157       .  T
C1118      N1122   1.157       .  T
C1119      N1124   1.157       .  T
C1120      N1123   1.157       .  T
C1129      C1130   1.408       .  A
C1129      C1134   1.394       .  A
C1129      C1143   1.445       .  S
C1130      C1135   1.474       .  S
C1130      C1131   1.402       .  A
C1131      C1132   1.398       .  A
C1131      H1150   1.085       .  S
C1132      C1133   1.411       .  A
C1132      C1144   1.444       .  S
C1133      C1134   1.403       .  A
C1134      H1149   1.085       .  S
C1135      C1136   1.400       .  A
C1135      C1140   1.408       .  A
C1136      C1137   1.396       .  A
C1136      H1151   1.085       .  S
C1137      C1138   1.414       .  A
C1137      C1141   1.445       .  S
C1138      C1139   1.405       .  A
C1139      C1140   1.396       .  A
C1139      H1152   1.085       .  S
C1140      C1142   1.444       .  S
C1141      N1145   1.157       .  T
C1142      N1146   1.157       .  T
C1143      N1148   1.157       .  T
C1144      N1147   1.157       .  T
C1153      C1154   1.409       .  A
C1153      C1158   1.400       .  A
C1153      C1167   1.444       .  S
C1154      C1159   1.481       .  S
C1154      C1155   1.401       .  A
C1155      C1156   1.397       .  A
C1155      H1174   1.085       .  S
C1156      C1157   1.416       .  A
C1156      C1168   1.445       .  S
C1157      C1158   1.405       .  A
C1158      H1173   1.085       .  S
C1159      C1160   1.401       .  A
C1159      C1164   1.409       .  A
C1160      C1161   1.399       .  A
C1160      H1175   1.085       .  S
C1161      C1162   1.416       .  A
C1161      C1165   1.444       .  S
C1162      C1163   1.406       .  A
C1163      C1164   1.398       .  A
C1163      H1176   1.085       .  S
C1164      C1166   1.444       .  S
C1165      N1169   1.157       .  T
C1166      N1170   1.157       .  T
C1167      N1172   1.157       .  T
C1168      N1171   1.157       .  T
C1177      C1178   1.411       .  A
C1177      C1182   1.399       .  A
C1177      C1191   1.444       .  S
C1178      C1183   1.481       .  S
C1178      C1179   1.402       .  A
C1179      C1180   1.399       .  A
C1179      H1198   1.085       .  S
C1180      C1181   1.411       .  A
C1180      C1192   1.445       .  S
C1181      C1182   1.402       .  A
C1182      H1197   1.085       .  S
C1183      C1184   1.400       .  A
C1183      C1188   1.407       .  A
C1184      C1185   1.400       .  A
C1184      H1199   1.085       .  S
C1185      C1186   1.420       .  A
C1185      C1189   1.444       .  S
C1186      C1187   1.410       .  A
C1187      C1188   1.399       .  A
C1187      H1200   1.084       .  S
C1188      C1190   1.444       .  S
C1189      N1193   1.157       .  T
C1190      N1194   1.157       .  T
C1191      N1196   1.157       .  T
C1192      N1195   1.157       .  T
C1201      C1202   1.409       .  A
C1201      C1206   1.396       .  A
C1201      C1215   1.445       .  S
C1202      C1207   1.481       .  S
C1202      C1203   1.403       .  A
C1203      C1204   1.400       .  A
C1203      H1222   1.085       .  S
C1204      C1205   1.413       .  A
C1204      C1216   1.444       .  S
C1205      C1206   1.405       .  A
C1206      H1221   1.085       .  S
C1207      C1208   1.401       .  A
C1207      C1212   1.410       .  A
C1208      C1209   1.398       .  A
C1208      H1223   1.085       .  S
C1209      C1210   1.416       .  A
C1209      C1213   1.445       .  S
C1210      C1211   1.405       .  A
C1211      C1212   1.399       .  A
C1211      H1224   1.085       .  S
C1212      C1214   1.444       .  S
C1213      N1217   1.157       .  T
C1214      N1218   1.157       .  T
C1215      N1220   1.157       .  T
C1216      N1219   1.157       .  T
C1225      C1226   1.410       .  A
C1225      C1230   1.399       .  A
C1225      C1239   1.445       .  S
C1226      C1231   1.483       .  S
C1226      C1227   1.402       .  A
C1227      C1228   1.399       .  A
C1227      H1246   1.085       .  S
C1228      C1229   1.416       .  A
C1228      C1240   1.444       .  S
C1229      C1230   1.406       .  A
C1230      H1245   1.085       .  S
C1231      C1232   1.402       .  A
C1231      C1236   1.410       .  A
C1232      C1233   1.399       .  A
C1232      H1247   1.085       .  S
C1233      C1234   1.416       .  A
C1233      C1237   1.445       .  S
C1234      C1235   1.405       .  A
C1235      C1236   1.398       .  A
C1235      H1248   1.085       .  S
C1236      C1238   1.444       .  S
C1237      N1241   1.157       .  T
C1238      N1242   1.157       .  T
C1239      N1244   1.157       .  T
C1240      N1243   1.157       .  T
C1249      C1250   1.411       .  A
C1249      C1254   1.401       .  A
C1249      C1263   1.444       .  S
C1250      C1255   1.485       .  S
C1250      C1251   1.400       .  A
C1251      C1252   1.398       .  A
C1251      H1270   1.085       .  S
C1252      C1253   1.417       .  A
C1252      C1264   1.444       .  S
C1253      C1254   1.407       .  A
C1254      H1269   1.085       .  S
C1255      C1256   1.406       .  A
C1255      C1260   1.411       .  A
C1256      C1257   1.403       .  A
C1256      H1271   1.085       .  S
C1257      C1258   1.411       .  A
C1257      C1261   1.443       .  S
C1258      C1259   1.405       .  A
C1259      C1260   1.396       .  A
C1259      H1272   1.085       .  S
C1260      C1262   1.445       .  S
C1261      N1265   1.157       .  T
C1262      N1266   1.157       .  T
C1263      N1268   1.157       .  T
C1264      N1267   1.157       .  T
C1273      C1274   1.406       .  A
C1273      C1278   1.395       .  A
C1273      C1287   1.445       .  S
C1274      C1279   1.476       .  S
C1274      C1275   1.401       .  A
C1275      C1276   1.399       .  A
C1275      H1294   1.085       .  S
C1276      C1277   1.417       .  A
C1276      C1288   1.444       .  S
C1277      C1278   1.408       .  A
C1278      H1293   1.084       .  S
C1279      C1280   1.399       .  A
C1279      C1284   1.409       .  A
C1280      C1281   1.395       .  A
C1280      H1295   1.085       .  S
C1281      C1282   1.415       .  A
C1281      C1285   1.444       .  S
C1282      C1283   1.404       .  A
C1283      C1284   1.398       .  A
C1283      H1296   1.085       .  S
C1284      C1286   1.444       .  S
C1285      N1289   1.157       .  T
C1286      N1290   1.157       .  T
C1287      N1292   1.157       .  T
C1288      N1291   1.157       .  T
C1297      C1298   1.410       .  A
C1297      C1302   1.397       .  A
C1297      C1311   1.444       .  S
C1298      C1303   1.477       .  S
C1298      C1299   1.402       .  A
C1299      C1300   1.398       .  A
C1299      H1318   1.085       .  S
C1300      C1301   1.410       .  A
C1300      C1312   1.444       .  S
C1301      C1302   1.402       .  A
C1302      H1317   1.085       .  S
C1303      C1304   1.399       .  A
C1303      C1308   1.408       .  A
C1304      C1305   1.399       .  A
C1304      H1319   1.085       .  S
C1305      C1306   1.418       .  A
C1305      C1309   1.444       .  S
C1306      C1307   1.407       .  A
C1307      C1308   1.397       .  A
C1307      H1320   1.084       .  S
C1308      C1310   1.445       .  S
C1309      N1313   1.157       .  T
C1310      N1314   1.157       .  T
C1311      N1316   1.157       .  T
C1312      N1315   1.157       .  T
C1321      C1322   1.409       .  A
C1321      C1326   1.399       .  A
C1321      C1335   1.444       .  S
C1322      C1327   1.479       .  S
C1322      C1323   1.400       .  A
C1323      C1324   1.397       .  A
C1323      H1342   1.085       .  S
C1324      C1325   1.416       .  A
C1324      C1336   1.445       .  S
C1325      C1326   1.405       .  A
C1326      H1341   1.085       .  S
C1327      C1328   1.402       .  A
C1327      C1332   1.409       .  A
C1328      C1329   1.399       .  A
C1328      H1343   1.085       .  S
C1329      C1330   1.414       .  A
C1329      C1333   1.444       .  S
C1330      C1331   1.405       .  A
C1331      C1332   1.397       .  A
C1331      H1344   1.085       .  S
C1332      C1334   1.444       .  S
C1333      N1337   1.157       .  T
C1334      N1338   1.157       .  T
C1335      N1340   1.157       .  T
C1336      N1339   1.157       .  T
C1345      C1346   1.408       .  A
C1345      C1350   1.397       .  A
C1345      C1359   1.444       .  S
C1346      C1351   1.475       .  S
C1346      C1347   1.401       .  A
C1347      C1348   1.400       .  A
C1347      H1366   1.085       .  S
C1348      C1349   1.413       .  A
C1348      C1360   1.444       .  S
C1349      C1350   1.403       .  A
C1350      H1365   1.084       .  S
C1351      C1352   1.399       .  A
C1351      C1356   1.407       .  A
C1352      C1353   1.398       .  A
C1352      H1367   1.085       .  S
C1353      C1354   1.417       .  A
C1353      C1357   1.444       .  S
C1354      C1355   1.406       .  A
C1355      C1356   1.398       .  A
C1355      H1368   1.085       .  S
C1356      C1358   1.444       .  S
C1357      N1361   1.157       .  T
C1358      N1362   1.157       .  T
C1359      N1364   1.157       .  T
C1360      N1363   1.157       .  T
C1369      C1370   1.410       .  A
C1369      C1374   1.397       .  A
C1369      C1383   1.445       .  S
C1370      C1375   1.480       .  S
C1370      C1371   1.402       .  A
C1371      C1372   1.400       .  A
C1371      H1390   1.085       .  S
C1372      C1373   1.413       .  A
C1372      C1384   1.444       .  S
C1373      C1374   1.404       .  A
C1374      H1389   1.085       .  S
C1375      C1376   1.402       .  A
C1375      C1380   1.409       .  A
C1376      C1377   1.399       .  A
C1376      H1391   1.085       .  S
C1377      C1378   1.414       .  A
C1377      C1381   1.444       .  S
C1378      C1379   1.406       .  A
C1379      C1380   1.397       .  A
C1379      H1392   1.085       .  S
C1380      C1382   1.444       .  S
C1381      N1385   1.157       .  T
C1382      N1386   1.157       .  T
C1383      N1388   1.157       .  T
C1384      N1387   1.157       .  T
C1393      C1394   1.410       .  A
C1393      C1398   1.397       .  A
C1393      C1407   1.444       .  S
C1394      C1399   1.480       .  S
C1394      C1395   1.402       .  A
C1395      C1396   1.398       .  A
C1395      H1414   1.085       .  S
C1396      C1397   1.415       .  A
C1396      C1408   1.445       .  S
C1397      C1398   1.403       .  A
C1398      H1413   1.083       .  S
C1399      C1400   1.401       .  A
C1399      C1404   1.409       .  A
C1400      C1401   1.396       .  A
C1400      H1415   1.085       .  S
C1401      C1402   1.415       .  A
C1401      C1405   1.444       .  S
C1402      C1403   1.407       .  A
C1403      C1404   1.399       .  A
C1403      H1416   1.085       .  S
C1404      C1406   1.444       .  S
C1405      N1409   1.157       .  T
C1406      N1410   1.157       .  T
C1407      N1412   1.157       .  T
C1408      N1411   1.157       .  T
C1417      C1418   1.409       .  A
C1417      C1422   1.400       .  A
C1417      C1431   1.444       .  S
C1418      C1423   1.485       .  S
C1418      C1419   1.402       .  A
C1419      C1420   1.400       .  A
C1419      H1438   1.085       .  S
C1420      C1421   1.418       .  A
C1420      C1432   1.444       .  S
C1421      C1422   1.408       .  A
C1422      H1437   1.084       .  S
C1423      C1424   1.404       .  A
C1423      C1428   1.411       .  A
C1424      C1425   1.401       .  A
C1424      H1439   1.085       .  S
C1425      C1426   1.412       .  A
C1425      C1429   1.444       .  S
C1426      C1427   1.402       .  A
C1427      C1428   1.398       .  A
C1427      H1440   1.085       .  S
C1428      C1430   1.444       .  S
C1429      N1433   1.157       .  T
C1430      N1434   1.157       .  T
C1431      N1436   1.157       .  T
C1432      N1435   1.157       .  T
C1441      C1442   1.410       .  A
C1441      C1446   1.398       .  A
C1441      C1455   1.444       .  S
C1442      C1447   1.487       .  S
C1442      C1443   1.405       .  A
C1443      C1444   1.401       .  A
C1443      H1462   1.085       .  S
C1444      C1445   1.414       .  A
C1444      C1456   1.444       .  S
C1445      C1446   1.407       .  A
C1446      H1461   1.085       .  S
C1447      C1448   1.404       .  A
C1447      C1452   1.409       .  A
C1448      C1449   1.402       .  A
C1448      H1463   1.085       .  S
C1449      C1450   1.418       .  A
C1449      C1453   1.444       .  S
C1450      C1451   1.407       .  A
C1451      C1452   1.397       .  A
C1451      H1464   1.084       .  S
C1452      C1454   1.444       .  S
C1453      N1457   1.158       .  T
C1454      N1458   1.157       .  T
C1455      N1460   1.157       .  T
C1456      N1459   1.157       .  T
C1465      C1466   1.409       .  A
C1465      C1470   1.396       .  A
C1465      C1479   1.444       .  S
C1466      C1471   1.476       .  S
C1466      C1467   1.401       .  A
C1467      C1468   1.401       .  A
C1467      H1486   1.085       .  S
C1468      C1469   1.413       .  A
C1468      C1480   1.444       .  S
C1469      C1470   1.402       .  A
C1470      H1485   1.085       .  S
C1471      C1472   1.398       .  A
C1471      C1476   1.406       .  A
C1472      C1473   1.398       .  A
C1472      H1487   1.085       .  S
C1473      C1474   1.417       .  A
C1473      C1477   1.443       .  S
C1474      C1475   1.408       .  A
C1475      C1476   1.398       .  A
C1475      H1488   1.085       .  S
C1476      C1478   1.444       .  S
C1477      N1481   1.157       .  T
C1478      N1482   1.157       .  T
C1479      N1484   1.157       .  T
C1480      N1483   1.157       .  T
C1489      C1490   1.407       .  A
C1489      C1494   1.396       .  A
C1489      C1503   1.444       .  S
C1490      C1495   1.485       .  S
C1490      C1491   1.404       .  A
C1491      C1492   1.403       .  A
C1491      H1510   1.086       .  S
C1492      C1493   1.417       .  A
C1492      C1504   1.444       .  S
C1493      C1494   1.406       .  A
C1494      H1509   1.083       .  S
C1495      C1496   1.403       .  A
C1495      C1500   1.411       .  A
C1496      C1497   1.400       .  A
C1496      H1511   1.085       .  S
C1497      C1498   1.412       .  A
C1497      C1501   1.445       .  S
C1498      C1499   1.404       .  A
C1499      C1500   1.401       .  A
C1499      H1512   1.085       .  S
C1500      C1502   1.444       .  S
C1501      N1505   1.157       .  T
C1502      N1506   1.157       .  T
C1503      N1508   1.157       .  T
C1504      N1507   1.157       .  T
C1513      C1514   1.409       .  A
C1513      C1518   1.399       .  A
C1513      C1527   1.444       .  S
C1514      C1519   1.482       .  S
C1514      C1515   1.402       .  A
C1515      C1516   1.398       .  A
C1515      H1534   1.085       .  S
C1516      C1517   1.414       .  A
C1516      C1528   1.444       .  S
C1517      C1518   1.406       .  A
C1518      H1533   1.085       .  S
C1519      C1520   1.401       .  A
C1519      C1524   1.410       .  A
C1520      C1521   1.399       .  A
C1520      H1535   1.085       .  S
C1521      C1522   1.416       .  A
C1521      C1525   1.444       .  S
C1522      C1523   1.405       .  A
C1523      C1524   1.399       .  A
C1523      H1536   1.085       .  S
C1524      C1526   1.444       .  S
C1525      N1529   1.157       .  T
C1526      N1530   1.157       .  T
C1527      N1532   1.157       .  T
C1528      N1531   1.157       .  T
C1537      C1538   1.410       .  A
C1537      C1542   1.395       .  A
C1537      C1551   1.445       .  S
C1538      C1543   1.481       .  S
C1538      C1539   1.403       .  A
C1539      C1540   1.398       .  A
C1539      H1558   1.085       .  S
C1540      C1541   1.415       .  A
C1540      C1552   1.444       .  S
C1541      C1542   1.406       .  A
C1542      H1557   1.085       .  S
C1543      C1544   1.403       .  A
C1543      C1548   1.410       .  A
C1544      C1545   1.396       .  A
C1544      H1559   1.085       .  S
C1545      C1546   1.413       .  A
C1545      C1549   1.445       .  S
C1546      C1547   1.403       .  A
C1547      C1548   1.396       .  A
C1547      H1560   1.085       .  S
C1548      C1550   1.444       .  S
C1549      N1553   1.157       .  T
C1550      N1554   1.157       .  T
C1551      N1556   1.157       .  T
C1552      N1555   1.157       .  T
C1561      C1562   1.408       .  A
C1561      C1566   1.399       .  A
C1561      C1575   1.444       .  S
C1562      C1567   1.475       .  S
C1562      C1563   1.398       .  A
C1563      C1564   1.396       .  A
C1563      H1582   1.085       .  S
C1564      C1565   1.416       .  A
C1564      C1576   1.444       .  S
C1565      C1566   1.406       .  A
C1566      H1581   1.085       .  S
C1567      C1568   1.402       .  A
C1567      C1572   1.408       .  A
C1568      C1569   1.398       .  A
C1568      H1583   1.085       .  S
C1569      C1570   1.411       .  A
C1569      C1573   1.445       .  S
C1570      C1571   1.402       .  A
C1571      C1572   1.396       .  A
C1571      H1584   1.085       .  S
C1572      C1574   1.444       .  S
C1573      N1577   1.157       .  T
C1574      N1578   1.157       .  T
C1575      N1580   1.157       .  T
C1576      N1579   1.157       .  T
C1585      C1586   1.412       .  A
C1585      C1590   1.402       .  A
C1585      C1599   1.444       .  S
C1586      C1591   1.488       .  S
C1586      C1587   1.401       .  A
C1587      C1588   1.397       .  A
C1587      H1606   1.085       .  S
C1588      C1589   1.420       .  A
C1588      C1600   1.445       .  S
C1589      C1590   1.408       .  A
C1590      H1605   1.084       .  S
C1591      C1592   1.403       .  A
C1591      C1596   1.412       .  A
C1592      C1593   1.400       .  A
C1592      H1607   1.085       .  S
C1593      C1594   1.415       .  A
C1593      C1597   1.444       .  S
C1594      C1595   1.405       .  A
C1595      C1596   1.399       .  A
C1595      H1608   1.085       .  S
C1596      C1598   1.444       .  S
C1597      N1601   1.157       .  T
C1598      N1602   1.157       .  T
C1599      N1604   1.157       .  T
C1600      N1603   1.157       .  T
C1609      C1610   1.407       .  A
C1609      C1614   1.396       .  A
C1609      C1623   1.444       .  S
C1610      C1615   1.481       .  S
C1610      C1611   1.401       .  A
C1611      C1612   1.398       .  A
C1611      H1630   1.085       .  S
C1612      C1613   1.419       .  A
C1612      C1624   1.443       .  S
C1613      C1614   1.410       .  A
C1614      H1629   1.084       .  S
C1615      C1616   1.404       .  A
C1615      C1620   1.410       .  A
C1616      C1617   1.398       .  A
C1616      H1631   1.085       .  S
C1617      C1618   1.412       .  A
C1617      C1621   1.444       .  S
C1618      C1619   1.404       .  A
C1619      C1620   1.396       .  A
C1619      H1632   1.085   1_655  S
C1620      C1622   1.444       .  S
C1621      N1625   1.157       .  T
C1622      N1626   1.157       .  T
C1623      N1628   1.157       .  T
C1624      N1627   1.157       .  T
C1633      C1634   1.408       .  A
C1633      C1638   1.396       .  A
C1633      C1647   1.444       .  S
C1634      C1639   1.474       .  S
C1634      C1635   1.401       .  A
C1635      C1636   1.397       .  A
C1635      H1654   1.085       .  S
C1636      C1637   1.411       .  A
C1636      C1648   1.444       .  S
C1637      C1638   1.403       .  A
C1638      H1653   1.085       .  S
C1639      C1640   1.397       .  A
C1639      C1644   1.408       .  A
C1640      C1641   1.396       .  A
C1640      H1655   1.085       .  S
C1641      C1642   1.419       .  A
C1641      C1645   1.445       .  S
C1642      C1643   1.406       .  A
C1643      C1644   1.397       .  A
C1643      H1656   1.084       .  S
C1644      C1646   1.444       .  S
C1645      N1649   1.157       .  T
C1646      N1650   1.157       .  T
C1647      N1652   1.157       .  T
C1648      N1651   1.157       .  T
C1657      C1658   1.411       .  A
C1657      C1662   1.398       .  A
C1657      C1671   1.445       .  S
C1658      C1663   1.479       .  S
C1658      C1659   1.402       .  A
C1659      C1660   1.399       .  A
C1659      H1678   1.085       .  S
C1660      C1661   1.412       .  A
C1660      C1672   1.444       .  S
C1661      C1662   1.403       .  A
C1662      H1677   1.085       .  S
C1663      C1664   1.400       .  A
C1663      C1668   1.407       .  A
C1664      C1665   1.398       .  A
C1664      H1679   1.085       .  S
C1665      C1666   1.419       .  A
C1665      C1669   1.445       .  S
C1666      C1667   1.409       .  A
C1667      C1668   1.397       .  A
C1667      H1680   1.084       .  S
C1668      C1670   1.444       .  S
C1669      N1673   1.158       .  T
C1670      N1674   1.157       .  T
C1671      N1676   1.157       .  T
C1672      N1675   1.157       .  T
C1681      C1682   1.411       .  A
C1681      C1686   1.397       .  A
C1681      C1695   1.444       .  S
C1682      C1687   1.484       .  S
C1682      C1683   1.404       .  A
C1683      C1684   1.399       .  A
C1683      H1702   1.085       .  S
C1684      C1685   1.412       .  A
C1684      C1696   1.444       .  S
C1685      C1686   1.404       .  A
C1686      H1701   1.085       .  S
C1687      C1688   1.403       .  A
C1687      C1692   1.410       .  A
C1688      C1689   1.400       .  A
C1688      H1703   1.085       .  S
C1689      C1690   1.416       .  A
C1689      C1693   1.444       .  S
C1690      C1691   1.407       .  A
C1691      C1692   1.396       .  A
C1691      H1704   1.085       .  S
C1692      C1694   1.445       .  S
C1693      N1697   1.157       .  T
C1694      N1698   1.157       .  T
C1695      N1700   1.157       .  T
C1696      N1699   1.157       .  T
C1705      C1706   1.410       .  A
C1705      C1710   1.396       .  A
C1705      C1719   1.444       .  S
C1706      C1711   1.479       .  S
C1706      C1707   1.401       .  A
C1707      C1708   1.398       .  A
C1707      H1726   1.085       .  S
C1708      C1709   1.415       .  A
C1708      C1720   1.445       .  S
C1709      C1710   1.404       .  A
C1710      H1725   1.085       .  S
C1711      C1712   1.401       .  A
C1711      C1716   1.409       .  A
C1712      C1713   1.396       .  A
C1712      H1727   1.085       .  S
C1713      C1714   1.414       .  A
C1713      C1717   1.445       .  S
C1714      C1715   1.405       .  A
C1715      C1716   1.398       .  A
C1715      H1728   1.085       .  S
C1716      C1718   1.444       .  S
C1717      N1721   1.157       .  T
C1718      N1722   1.157       .  T
C1719      N1724   1.157       .  T
C1720      N1723   1.157       .  T
C1729      C1730   1.409       .  A
C1729      C1734   1.399       .  A
C1729      C1743   1.444       .  S
C1730      C1735   1.476       .  S
C1730      C1731   1.401       .  A
C1731      C1732   1.399       .  A
C1731      H1750   1.085       .  S
C1732      C1733   1.409       .  A
C1732      C1744   1.443       .  S
C1733      C1734   1.403       .  A
C1734      H1749   1.085       .  S
C1735      C1736   1.399       .  A
C1735      C1740   1.406       .  A
C1736      C1737   1.398       .  A
C1736      H1751   1.085       .  S
C1737      C1738   1.416       .  A
C1737      C1741   1.444       .  S
C1738      C1739   1.408       .  A
C1739      C1740   1.400       .  A
C1739      H1752   1.084       .  S
C1740      C1742   1.444       .  S
C1741      N1745   1.157       .  T
C1742      N1746   1.157       .  T
C1743      N1748   1.157       .  T
C1744      N1747   1.157       .  T
C1753      C1754   1.411       .  A
C1753      C1758   1.400       .  A
C1753      C1767   1.444       .  S
C1754      C1759   1.480       .  S
C1754      C1755   1.401       .  A
C1755      C1756   1.396       .  A
C1755      H1774   1.085       .  S
C1756      C1757   1.414       .  A
C1756      C1768   1.445       .  S
C1757      C1758   1.403       .  A
C1758      H1773   1.085       .  S
C1759      C1760   1.401       .  A
C1759      C1764   1.408       .  A
C1760      C1761   1.401       .  A
C1760      H1775   1.085       .  S
C1761      C1762   1.418       .  A
C1761      C1765   1.443       .  S
C1762      C1763   1.408       .  A
C1763      C1764   1.395       .  A
C1763      H1776   1.084       .  S
C1764      C1766   1.445       .  S
C1765      N1769   1.157       .  T
C1766      N1770   1.157       .  T
C1767      N1772   1.157       .  T
C1768      N1771   1.157       .  T
C1777      C1778   1.408       .  A
C1777      C1782   1.399       .  A
C1777      C1791   1.444       .  S
C1778      C1783   1.473       .  S
C1778      C1779   1.399       .  A
C1779      C1780   1.394       .  A
C1779      H1798   1.085       .  S
C1780      C1781   1.413       .  A
C1780      C1792   1.445       .  S
C1781      C1782   1.404       .  A
C1782      H1797   1.085       .  S
C1783      C1784   1.399       .  A
C1783      C1788   1.407       .  A
C1784      C1785   1.399       .  A
C1784      H1799   1.085       .  S
C1785      C1786   1.416       .  A
C1785      C1789   1.445       .  S
C1786      C1787   1.404       .  A
C1787      C1788   1.396       .  A
C1787      H1800   1.085       .  S
C1788      C1790   1.444       .  S
C1789      N1793   1.157       .  T
C1790      N1794   1.157       .  T
C1791      N1796   1.157       .  T
C1792      N1795   1.157       .  T
C1801      C1802   1.406       .  A
C1801      C1806   1.396       .  A
C1801      C1815   1.445       .  S
C1802      C1807   1.479       .  S
C1802      C1803   1.399       .  A
C1803      C1804   1.399       .  A
C1803      H1822   1.085       .  S
C1804      C1805   1.422       .  A
C1804      C1816   1.444       .  S
C1805      C1806   1.410       .  A
C1806      H1821   1.084       .  S
C1807      C1808   1.402       .  A
C1807      C1812   1.411       .  A
C1808      C1809   1.397       .  A
C1808      H1823   1.085       .  S
C1809      C1810   1.411       .  A
C1809      C1813   1.445       .  S
C1810      C1811   1.402       .  A
C1811      C1812   1.398       .  A
C1811      H1824   1.085       .  S
C1812      C1814   1.444       .  S
C1813      N1817   1.157       .  T
C1814      N1818   1.157       .  T
C1815      N1820   1.157       .  T
C1816      N1819   1.157       .  T
C1825      C1826   1.411       .  A
C1825      C1830   1.398       .  A
C1825      C1839   1.445       .  S
C1826      C1831   1.485       .  S
C1826      C1827   1.403       .  A
C1827      C1828   1.401       .  A
C1827      H1846   1.085       .  S
C1828      C1829   1.414       .  A
C1828      C1840   1.444       .  S
C1829      C1830   1.404       .  A
C1830      H1845   1.085       .  S
C1831      C1832   1.402       .  A
C1831      C1836   1.410       .  A
C1832      C1833   1.400       .  A
C1832      H1847   1.085       .  S
C1833      C1834   1.417       .  A
C1833      C1837   1.445       .  S
C1834      C1835   1.406       .  A
C1835      C1836   1.399       .  A
C1835      H1848   1.084       .  S
C1836      C1838   1.444       .  S
C1837      N1841   1.157       .  T
C1838      N1842   1.157       .  T
C1839      N1844   1.157       .  T
C1840      N1843   1.157       .  T
C1849      C1850   1.410       .  A
C1849      C1854   1.401       .  A
C1849      C1863   1.444       .  S
C1850      C1855   1.485       .  S
C1850      C1851   1.401       .  A
C1851      C1852   1.400       .  A
C1851      H1870   1.085       .  S
C1852      C1853   1.417       .  A
C1852      C1864   1.442       .  S
C1853      C1854   1.408       .  A
C1854      H1869   1.084       .  S
C1855      C1856   1.402       .  A
C1855      C1860   1.410       .  A
C1856      C1857   1.400       .  A
C1856      H1871   1.085       .  S
C1857      C1858   1.416       .  A
C1857      C1861   1.444       .  S
C1858      C1859   1.406       .  A
C1859      C1860   1.401       .  A
C1859      H1872   1.085       .  S
C1860      C1862   1.444       .  S
C1861      N1865   1.157       .  T
C1862      N1866   1.157       .  T
C1863      N1868   1.157       .  T
C1864      N1867   1.157       .  T
C1873      C1874   1.409       .  A
C1873      C1878   1.400       .  A
C1873      C1887   1.444       .  S
C1874      C1879   1.483       .  S
C1874      C1875   1.401       .  A
C1875      C1876   1.400       .  A
C1875      H1894   1.085       .  S
C1876      C1877   1.418       .  A
C1876      C1888   1.444       .  S
C1877      C1878   1.408       .  A
C1878      H1893   1.084       .  S
C1879      C1880   1.403       .  A
C1879      C1884   1.411       .  A
C1880      C1881   1.400       .  A
C1880      H1895   1.085       .  S
C1881      C1882   1.411       .  A
C1881      C1885   1.444       .  S
C1882      C1883   1.404       .  A
C1883      C1884   1.399       .  A
C1883      H1896   1.085       .  S
C1884      C1886   1.444       .  S
C1885      N1889   1.157       .  T
C1886      N1890   1.157       .  T
C1887      N1892   1.157       .  T
C1888      N1891   1.157       .  T
C1897      C1898   1.410       .  A
C1897      C1902   1.402       .  A
C1897      C1911   1.444       .  S
C1898      C1903   1.486       .  S
C1898      C1899   1.402       .  A
C1899      C1900   1.399       .  A
C1899      H1918   1.085       .  S
C1900      C1901   1.416       .  A
C1900      C1912   1.444       .  S
C1901      C1902   1.407       .  A
C1902      H1917   1.085       .  S
C1903      C1904   1.403       .  A
C1903      C1908   1.411       .  A
C1904      C1905   1.401       .  A
C1904      H1919   1.085       .  S
C1905      C1906   1.415       .  A
C1905      C1909   1.444       .  S
C1906      C1907   1.405       .  A
C1907      C1908   1.399       .  A
C1907      H1920   1.085       .  S
C1908      C1910   1.444       .  S
C1909      N1913   1.157       .  T
C1910      N1914   1.157       .  T
C1911      N1916   1.157       .  T
C1912      N1915   1.157       .  T
C1921      C1922   1.408       .  A
C1921      C1926   1.401       .  A
C1921      C1935   1.444       .  S
C1922      C1927   1.480       .  S
C1922      C1923   1.400       .  A
C1923      C1924   1.397       .  A
C1923      H1942   1.085       .  S
C1924      C1925   1.418       .  A
C1924      C1936   1.445       .  S
C1925      C1926   1.407       .  A
C1926      H1941   1.084       .  S
C1927      C1928   1.401       .  A
C1927      C1932   1.410       .  A
C1928      C1929   1.399       .  A
C1928      H1943   1.085       .  S
C1929      C1930   1.415       .  A
C1929      C1933   1.444       .  S
C1930      C1931   1.404       .  A
C1931      C1932   1.400       .  A
C1931      H1944   1.085       .  S
C1932      C1934   1.444       .  S
C1933      N1937   1.157       .  T
C1934      N1938   1.157       .  T
C1935      N1940   1.157       .  T
C1936      N1939   1.157       .  T
C1945      C1946   1.411       .  A
C1945      C1950   1.399       .  A
C1945      C1959   1.444       .  S
C1946      C1951   1.490       .  S
C1946      C1947   1.404       .  A
C1947      C1948   1.402       .  A
C1947      H1966   1.085       .  S
C1948      C1949   1.416       .  A
C1948      C1960   1.444       .  S
C1949      C1950   1.406       .  A
C1950      H1965   1.085       .  S
C1951      C1952   1.403       .  A
C1951      C1956   1.412       .  A
C1952      C1953   1.401       .  A
C1952      H1967   1.085       .  S
C1953      C1954   1.415       .  A
C1953      C1957   1.443       .  S
C1954      C1955   1.406       .  A
C1955      C1956   1.401       .  A
C1955      H1968   1.085       .  S
C1956      C1958   1.444       .  S
C1957      N1961   1.157       .  T
C1958      N1962   1.157       .  T
C1959      N1964   1.157       .  T
C1960      N1963   1.157       .  T
C1969      C1970   1.408       .  A
C1969      C1974   1.395       .  A
C1969      C1983   1.445       .  S
C1970      C1975   1.477       .  S
C1970      C1971   1.400       .  A
C1971      C1972   1.401       .  A
C1971      H1990   1.085       .  S
C1972      C1973   1.417       .  A
C1972      C1984   1.443       .  S
C1973      C1974   1.406       .  A
C1974      H1989   1.084       .  S
C1975      C1976   1.401       .  A
C1975      C1980   1.409       .  A
C1976      C1977   1.399       .  A
C1976      H1991   1.085       .  S
C1977      C1978   1.414       .  A
C1977      C1981   1.444       .  S
C1978      C1979   1.403       .  A
C1979      C1980   1.396       .  A
C1979      H1992   1.085       .  S
C1980      C1982   1.444       .  S
C1981      N1985   1.157       .  T
C1982      N1986   1.157       .  T
C1983      N1988   1.157       .  T
C1984      N1987   1.157       .  T
C1993      C1994   1.414       .  A
C1993      C1998   1.400       .  A
C1993      C2007   1.444       .  S
C1994      C1999   1.491       .  S
C1994      C1995   1.406       .  A
C1995      C1996   1.401       .  A
C1995      H2014   1.085       .  S
C1996      C1997   1.409       .  A
C1996      C2008   1.444       .  S
C1997      C1998   1.401       .  A
C1998      H2013   1.085       .  S
C1999      C2000   1.403       .  A
C1999      C2004   1.409       .  A
C2000      C2001   1.402       .  A
C2000      H2015   1.085       .  S
C2001      C2002   1.420       .  A
C2001      C2005   1.443       .  S
C2002      C2003   1.411       .  A
C2003      C2004   1.399       .  A
C2003      H2016   1.083       .  S
C2004      C2006   1.445       .  S
C2005      N2009   1.157       .  T
C2006      N2010   1.157       .  T
C2007      N2012   1.157       .  T
C2008      N2011   1.157       .  T
C2017      C2018   1.409       .  A
C2017      C2022   1.399       .  A
C2017      C2031   1.444       .  S
C2018      C2023   1.477       .  S
C2018      C2019   1.402       .  A
C2019      C2020   1.396       .  A
C2019      H2038   1.085       .  S
C2020      C2021   1.410       .  A
C2020      C2032   1.444       .  S
C2021      C2022   1.404       .  A
C2022      H2037   1.085       .  S
C2023      C2024   1.400       .  A
C2023      C2028   1.406       .  A
C2024      C2025   1.400       .  A
C2024      H2039   1.085       .  S
C2025      C2026   1.419       .  A
C2025      C2029   1.443       .  S
C2026      C2027   1.409       .  A
C2027      C2028   1.394       .  A
C2027      H2040   1.084       .  S
C2028      C2030   1.445       .  S
C2029      N2033   1.157       .  T
C2030      N2034   1.157       .  T
C2031      N2036   1.157       .  T
C2032      N2035   1.157   1_565  T
C2041      C2042   1.408       .  A
C2041      C2046   1.397       .  A
C2041      C2055   1.444       .  S
C2042      C2047   1.474       .  S
C2042      C2043   1.399       .  A
C2043      C2044   1.397       .  A
C2043      H2062   1.085       .  S
C2044      C2045   1.413       .  A
C2044      C2056   1.444       .  S
C2045      C2046   1.403       .  A
C2046      H2061   1.085       .  S
C2047      C2048   1.399       .  A
C2047      C2052   1.407       .  A
C2048      C2049   1.399       .  A
C2048      H2063   1.085       .  S
C2049      C2050   1.417       .  A
C2049      C2053   1.444       .  S
C2050      C2051   1.405       .  A
C2051      C2052   1.395       .  A
C2051      H2064   1.085       .  S
C2052      C2054   1.445       .  S
C2053      N2057   1.157       .  T
C2054      N2058   1.157       .  T
C2055      N2060   1.157       .  T
C2056      N2059   1.157       .  T
C2065      C2066   1.411       .  A
C2065      C2070   1.397       .  A
C2065      C2079   1.444       .  S
C2066      C2071   1.480       .  S
C2066      C2067   1.404       .  A
C2067      C2068   1.398       .  A
C2067      H2086   1.085       .  S
C2068      C2069   1.408       .  A
C2068      C2080   1.443       .  S
C2069      C2070   1.402       .  A
C2070      H2085   1.085       .  S
C2071      C2072   1.400       .  A
C2071      C2076   1.408       .  A
C2072      C2073   1.397       .  A
C2072      H2087   1.085       .  S
C2073      C2074   1.418       .  A
C2073      C2077   1.445       .  S
C2074      C2075   1.408       .  A
C2075      C2076   1.398       .  A
C2075      H2088   1.084       .  S
C2076      C2078   1.444       .  S
C2077      N2081   1.157       .  T
C2078      N2082   1.157       .  T
C2079      N2084   1.157       .  T
C2080      N2083   1.157       .  T
C2089      C2090   1.408       .  A
C2089      C2094   1.400       .  A
C2089      C2103   1.444       .  S
C2090      C2095   1.484       .  S
C2090      C2091   1.401       .  A
C2091      C2092   1.399       .  A
C2091      H2110   1.085       .  S
C2092      C2093   1.418       .  A
C2092      C2104   1.444       .  S
C2093      C2094   1.408       .  A
C2094      H2109   1.084       .  S
C2095      C2096   1.403       .  A
C2095      C2100   1.409       .  A
C2096      C2097   1.400       .  A
C2096      H2111   1.085       .  S
C2097      C2098   1.414       .  A
C2097      C2101   1.444       .  S
C2098      C2099   1.404       .  A
C2099      C2100   1.399       .  A
C2099      H2112   1.083       .  S
C2100      C2102   1.444       .  S
C2101      N2105   1.157       .  T
C2102      N2106   1.157       .  T
C2103      N2108   1.157       .  T
C2104      N2107   1.157       .  T
C2113      C2114   1.410       .  A
C2113      C2118   1.398       .  A
C2113      C2127   1.444       .  S
C2114      C2119   1.479       .  S
C2114      C2115   1.401       .  A
C2115      C2116   1.397       .  A
C2115      H2134   1.085       .  S
C2116      C2117   1.414       .  A
C2116      C2128   1.445       .  S
C2117      C2118   1.403       .  A
C2118      H2133   1.084       .  S
C2119      C2120   1.400       .  A
C2119      C2124   1.409       .  A
C2120      C2121   1.398       .  A
C2120      H2135   1.085       .  S
C2121      C2122   1.417       .  A
C2121      C2125   1.444       .  S
C2122      C2123   1.406       .  A
C2123      C2124   1.398       .  A
C2123      H2136   1.085       .  S
C2124      C2126   1.444       .  S
C2125      N2129   1.157       .  T
C2126      N2130   1.157       .  T
C2127      N2132   1.157       .  T
C2128      N2131   1.157       .  T
C2137      C2138   1.410       .  A
C2137      C2142   1.398       .  A
C2137      C2151   1.444       .  S
C2138      C2143   1.479       .  S
C2138      C2139   1.401       .  A
C2139      C2140   1.397       .  A
C2139      H2158   1.085       .  S
C2140      C2141   1.414       .  A
C2140      C2152   1.444       .  S
C2141      C2142   1.403       .  A
C2142      H2157   1.085       .  S
C2143      C2144   1.399       .  A
C2143      C2148   1.409       .  A
C2144      C2145   1.397       .  A
C2144      H2159   1.085       .  S
C2145      C2146   1.418       .  A
C2145      C2149   1.445       .  S
C2146      C2147   1.407       .  A
C2147      C2148   1.399       .  A
C2147      H2160   1.084       .  S
C2148      C2150   1.444       .  S
C2149      N2153   1.157       .  T
C2150      N2154   1.157       .  T
C2151      N2156   1.157       .  T
C2152      N2155   1.157       .  T
C2161      C2162   1.411       .  A
C2161      C2166   1.399       .  A
C2161      C2175   1.444       .  S
C2162      C2167   1.483       .  S
C2162      C2163   1.402       .  A
C2163      C2164   1.401       .  A
C2163      H2182   1.085       .  S
C2164      C2165   1.412       .  A
C2164      C2176   1.444       .  S
C2165      C2166   1.402       .  A
C2166      H2181   1.084       .  S
C2167      C2168   1.402       .  A
C2167      C2172   1.409       .  A
C2168      C2169   1.402       .  A
C2168      H2183   1.085       .  S
C2169      C2170   1.417       .  A
C2169      C2173   1.444       .  S
C2170      C2171   1.406       .  A
C2171      C2172   1.397       .  A
C2171      H2184   1.085       .  S
C2172      C2174   1.444       .  S
C2173      N2177   1.157       .  T
C2174      N2178   1.157       .  T
C2175      N2180   1.157       .  T
C2176      N2179   1.157       .  T
C2185      C2186   1.404       .  A
C2185      C2190   1.394       .  A
C2185      C2199   1.445       .  S
C2186      C2191   1.470       .  S
C2186      C2187   1.399       .  A
C2187      C2188   1.398       .  A
C2187      H2206   1.085       .  S
C2188      C2189   1.418       .  A
C2188      C2200   1.444       .  S
C2189      C2190   1.409       .  A
C2190      H2205   1.084       .  S
C2191      C2192   1.400       .  A
C2191      C2196   1.408       .  A
C2192      C2193   1.394       .  A
C2192      H2207   1.085       .  S
C2193      C2194   1.408       .  A
C2193      C2197   1.444       .  S
C2194      C2195   1.401       .  A
C2195      C2196   1.398       .  A
C2195      H2208   1.085       .  S
C2196      C2198   1.443       .  S
C2197      N2201   1.157       .  T
C2198      N2202   1.157       .  T
C2199      N2204   1.157       .  T
C2200      N2203   1.157       .  T
C2209      C2210   1.409       .  A
C2209      C2214   1.396       .  A
C2209      C2223   1.444       .  S
C2210      C2215   1.477       .  S
C2210      C2211   1.400       .  A
C2211      C2212   1.396       .  A
C2211      H2230   1.085       .  S
C2212      C2213   1.416       .  A
C2212      C2224   1.443       .  S
C2213      C2214   1.405       .  A
C2214      H2229   1.085       .  S
C2215      C2216   1.401       .  A
C2215      C2220   1.410       .  A
C2216      C2217   1.396       .  A
C2216      H2231   1.085       .  S
C2217      C2218   1.415       .  A
C2217      C2221   1.444       .  S
C2218      C2219   1.404       .  A
C2219      C2220   1.396       .  A
C2219      H2232   1.085       .  S
C2220      C2222   1.445       .  S
C2221      N2225   1.157       .  T
C2222      N2226   1.157       .  T
C2223      N2228   1.157       .  T
C2224      N2227   1.157       .  T
C2233      C2234   1.411       .  A
C2233      C2238   1.396       .  A
C2233      C2247   1.445       .  S
C2234      C2239   1.483       .  S
C2234      C2235   1.403       .  A
C2235      C2236   1.399       .  A
C2235      H2254   1.085       .  S
C2236      C2237   1.414       .  A
C2236      C2248   1.444       .  S
C2237      C2238   1.404       .  A
C2238      H2253   1.085       .  S
C2239      C2240   1.401       .  A
C2239      C2244   1.411       .  A
C2240      C2241   1.397       .  A
C2240      H2255   1.085       .  S
C2241      C2242   1.418       .  A
C2241      C2245   1.445       .  S
C2242      C2243   1.405       .  A
C2243      C2244   1.398       .  A
C2243      H2256   1.084       .  S
C2244      C2246   1.445       .  S
C2245      N2249   1.157       .  T
C2246      N2250   1.157       .  T
C2247      N2252   1.157       .  T
C2248      N2251   1.157       .  T
C2257      C2258   1.407       .  A
C2257      C2262   1.396       .  A
C2257      C2271   1.444       .  S
C2258      C2263   1.474       .  S
C2258      C2259   1.400       .  A
C2259      C2260   1.397       .  A
C2259      H2278   1.085       .  S
C2260      C2261   1.416       .  A
C2260      C2272   1.444       .  S
C2261      C2262   1.406       .  A
C2262      H2277   1.085       .  S
C2263      C2264   1.401       .  A
C2263      C2268   1.408       .  A
C2264      C2265   1.397       .  A
C2264      H2279   1.085       .  S
C2265      C2266   1.414       .  A
C2265      C2269   1.444       .  S
C2266      C2267   1.404       .  A
C2267      C2268   1.395       .  A
C2267      H2280   1.085       .  S
C2268      C2270   1.445       .  S
C2269      N2273   1.157       .  T
C2270      N2274   1.157       .  T
C2271      N2276   1.157       .  T
C2272      N2275   1.157       .  T
C2281      C2282   1.407       .  A
C2281      C2286   1.394       .  A
C2281      C2295   1.444       .  S
C2282      C2287   1.475       .  S
C2282      C2283   1.402       .  A
C2283      C2284   1.396       .  A
C2283      H2302   1.085       .  S
C2284      C2285   1.413       .  A
C2284      C2296   1.445       .  S
C2285      C2286   1.405       .  A
C2286      H2301   1.085       .  S
C2287      C2288   1.402       .  A
C2287      C2292   1.408       .  A
C2288      C2289   1.396       .  A
C2288      H2303   1.085       .  S
C2289      C2290   1.413       .  A
C2289      C2293   1.444       .  S
C2290      C2291   1.404       .  A
C2291      C2292   1.395       .  A
C2291      H2304   1.085       .  S
C2292      C2294   1.444       .  S
C2293      N2297   1.157       .  T
C2294      N2298   1.157       .  T
C2295      N2300   1.157       .  T
C2296      N2299   1.157       .  T
C2305      C2306   1.411       .  A
C2305      C2310   1.399       .  A
C2305      C2319   1.444       .  S
C2306      C2311   1.486       .  S
C2306      C2307   1.405       .  A
C2307      C2308   1.401       .  A
C2307      H2326   1.085       .  S
C2308      C2309   1.412       .  A
C2308      C2320   1.444       .  S
C2309      C2310   1.404       .  A
C2310      H2325   1.085       .  S
C2311      C2312   1.404       .  A
C2311      C2316   1.410       .  A
C2312      C2313   1.401       .  A
C2312      H2327   1.085       .  S
C2313      C2314   1.415       .  A
C2313      C2317   1.444       .  S
C2314      C2315   1.407       .  A
C2315      C2316   1.397       .  A
C2315      H2328   1.085       .  S
C2316      C2318   1.445       .  S
C2317      N2321   1.157       .  T
C2318      N2322   1.157       .  T
C2319      N2324   1.157       .  T
C2320      N2323   1.157       .  T
C2329      C2330   1.411       .  A
C2329      C2334   1.399       .  A
C2329      C2343   1.444       .  S
C2330      C2335   1.487       .  S
C2330      C2331   1.403       .  A
C2331      C2332   1.400       .  A
C2331      H2350   1.085       .  S
C2332      C2333   1.415       .  A
C2332      C2344   1.444       .  S
C2333      C2334   1.405       .  A
C2334      H2349   1.084       .  S
C2335      C2336   1.404       .  A
C2335      C2340   1.410       .  A
C2336      C2337   1.402       .  A
C2336      H2351   1.085       .  S
C2337      C2338   1.415       .  A
C2337      C2341   1.443       .  S
C2338      C2339   1.407       .  A
C2339      C2340   1.398       .  A
C2339      H2352   1.085       .  S
C2340      C2342   1.445       .  S
C2341      N2345   1.157       .  T
C2342      N2346   1.157       .  T
C2343      N2348   1.157       .  T
C2344      N2347   1.157       .  T
C2353      C2354   1.407       .  A
C2353      C2358   1.397       .  A
C2353      C2367   1.444       .  S
C2354      C2359   1.475       .  S
C2354      C2355   1.400       .  A
C2355      C2356   1.397       .  A
C2355      H2374   1.085       .  S
C2356      C2357   1.414       .  A
C2356      C2368   1.444       .  S
C2357      C2358   1.407       .  A
C2358      H2373   1.085       .  S
C2359      C2360   1.400       .  A
C2359      C2364   1.409       .  A
C2360      C2361   1.399       .  A
C2360      H2375   1.085       .  S
C2361      C2362   1.415       .  A
C2361      C2365   1.444       .  S
C2362      C2363   1.403       .  A
C2363      C2364   1.395       .  A
C2363      H2376   1.085       .  S
C2364      C2366   1.445       .  S
C2365      N2369   1.157       .  T
C2366      N2370   1.157       .  T
C2367      N2372   1.157       .  T
C2368      N2371   1.157       .  T
C2377      C2378   1.410       .  A
C2377      C2382   1.398       .  A
C2377      C2391   1.444       .  S
C2378      C2383   1.478       .  S
C2378      C2379   1.401       .  A
C2379      C2380   1.396       .  A
C2379      H2398   1.085       .  S
C2380      C2381   1.413       .  A
C2380      C2392   1.445       .  S
C2381      C2382   1.404       .  A
C2382      H2397   1.085       .  S
C2383      C2384   1.401       .  A
C2383      C2388   1.408       .  A
C2384      C2385   1.398       .  A
C2384      H2399   1.085       .  S
C2385      C2386   1.416       .  A
C2385      C2389   1.444       .  S
C2386      C2387   1.406       .  A
C2387      C2388   1.396       .  A
C2387      H2400   1.085       .  S
C2388      C2390   1.445       .  S
C2389      N2393   1.157       .  T
C2390      N2394   1.157       .  T
C2391      N2396   1.157       .  T
C2392      N2395   1.157       .  T
C2401      C2402   1.408       .  A
C2401      C2406   1.398       .  A
C2401      C2415   1.444       .  S
C2402      C2407   1.481       .  S
C2402      C2403   1.402       .  A
C2403      C2404   1.401       .  A
C2403      H2422   1.085       .  S
C2404      C2405   1.415       .  A
C2404      C2416   1.444       .  S
C2405      C2406   1.406       .  A
C2406      H2421   1.085       .  S
C2407      C2408   1.403       .  A
C2407      C2412   1.408       .  A
C2408      C2409   1.399       .  A
C2408      H2423   1.085       .  S
C2409      C2410   1.413       .  A
C2409      C2413   1.444       .  S
C2410      C2411   1.406       .  A
C2411      C2412   1.400       .  A
C2411      H2424   1.085       .  S
C2412      C2414   1.444       .  S
C2413      N2417   1.157       .  T
C2414      N2418   1.157       .  T
C2415      N2420   1.157       .  T
C2416      N2419   1.157       .  T
C2425      C2426   1.408       .  A
C2425      C2430   1.398       .  A
C2425      C2439   1.444       .  S
C2426      C2431   1.478       .  S
C2426      C2427   1.401       .  A
C2427      C2428   1.400       .  A
C2427      H2446   1.085       .  S
C2428      C2429   1.414       .  A
C2428      C2440   1.444       .  S
C2429      C2430   1.405       .  A
C2430      H2445   1.085       .  S
C2431      C2432   1.399       .  A
C2431      C2436   1.409       .  A
C2432      C2433   1.398       .  A
C2432      H2447   1.085       .  S
C2433      C2434   1.414       .  A
C2433      C2437   1.444       .  S
C2434      C2435   1.405       .  A
C2435      C2436   1.400       .  A
C2435      H2448   1.084       .  S
C2436      C2438   1.444       .  S
C2437      N2441   1.157       .  T
C2438      N2442   1.157       .  T
C2439      N2444   1.157       .  T
C2440      N2443   1.157       .  T
C2449      C2450   1.408       .  A
C2449      C2454   1.396       .  A
C2449      C2463   1.444       .  S
C2450      C2455   1.479       .  S
C2450      C2451   1.400       .  A
C2451      C2452   1.400       .  A
C2451      H2470   1.085       .  S
C2452      C2453   1.418       .  A
C2452      C2464   1.444       .  S
C2453      C2454   1.407       .  A
C2454      H2469   1.084       .  S
C2455      C2456   1.403       .  A
C2455      C2460   1.410       .  A
C2456      C2457   1.401       .  A
C2456      H2471   1.085       .  S
C2457      C2458   1.411       .  A
C2457      C2461   1.444       .  S
C2458      C2459   1.401       .  A
C2459      C2460   1.396       .  A
C2459      H2472   1.085       .  S
C2460      C2462   1.445       .  S
C2461      N2465   1.157       .  T
C2462      N2466   1.157       .  T
C2463      N2468   1.157       .  T
C2464      N2467   1.157       .  T
C2473      C2474   1.411       .  A
C2473      C2478   1.396       .  A
C2473      C2487   1.445       .  S
C2474      C2479   1.478       .  S
C2474      C2475   1.403       .  A
C2475      C2476   1.395       .  A
C2475      H2494   1.085       .  S
C2476      C2477   1.410       .  A
C2476      C2488   1.444       .  S
C2477      C2478   1.402       .  A
C2478      H2493   1.085       .  S
C2479      C2480   1.400       .  A
C2479      C2484   1.409       .  A
C2480      C2481   1.395       .  A
C2480      H2495   1.085       .  S
C2481      C2482   1.419       .  A
C2481      C2485   1.445       .  S
C2482      C2483   1.407       .  A
C2483      C2484   1.395       .  A
C2483      H2496   1.084       .  S
C2484      C2486   1.445       .  S
C2485      N2489   1.158       .  T
C2486      N2490   1.157       .  T
C2487      N2492   1.157       .  T
C2488      N2491   1.157       .  T
C2497      C2498   1.410       .  A
C2497      C2502   1.400       .  A
C2497      C2511   1.444       .  S
C2498      C2503   1.483       .  S
C2498      C2499   1.401       .  A
C2499      C2500   1.401       .  A
C2499      H2518   1.085       .  S
C2500      C2501   1.413       .  A
C2500      C2512   1.443       .  S
C2501      C2502   1.403       .  A
C2502      H2517   1.085       .  S
C2503      C2504   1.400       .  A
C2503      C2508   1.407       .  A
C2504      C2505   1.402       .  A
C2504      H2519   1.085       .  S
C2505      C2506   1.420       .  A
C2505      C2509   1.443       .  S
C2506      C2507   1.410       .  A
C2507      C2508   1.399       .  A
C2507      H2520   1.084       .  S
C2508      C2510   1.444       .  S
C2509      N2513   1.157       .  T
C2510      N2514   1.157       .  T
C2511      N2516   1.157       .  T
C2512      N2515   1.157       .  T
C2521      C2522   1.410       .  A
C2521      C2526   1.392       .  A
C2521      C2535   1.445       .  S
C2522      C2527   1.482       .  S
C2522      C2523   1.404       .  A
C2523      C2524   1.401       .  A
C2523      H2542   1.088       .  S
C2524      C2525   1.412       .  A
C2524      C2536   1.444       .  S
C2525      C2526   1.402       .  A
C2526      H2541   1.088       .  S
C2527      C2528   1.402       .  A
C2527      C2532   1.411       .  A
C2528      C2529   1.397       .  A
C2528      H2543   1.087       .  S
C2529      C2530   1.413       .  A
C2529      C2533   1.444       .  S
C2530      C2531   1.405       .  A
C2531      C2532   1.398       .  A
C2531      H2544   1.087       .  S
C2532      C2534   1.444       .  S
C2533      N2537   1.157       .  T
C2534      N2538   1.157       .  T
C2535      N2540   1.157       .  T
C2536      N2539   1.157   1_554  T
C2545      C2546   1.408       .  A
C2545      C2550   1.396       .  A
C2545      C2559   1.444       .  S
C2546      C2551   1.475       .  S
C2546      C2547   1.402       .  A
C2547      C2548   1.396       .  A
C2547      H2566   1.085       .  S
C2548      C2549   1.412       .  A
C2548      C2560   1.444       .  S
C2549      C2550   1.404       .  A
C2550      H2565   1.085       .  S
C2551      C2552   1.401       .  A
C2551      C2556   1.407       .  A
C2552      C2553   1.397       .  A
C2552      H2567   1.085       .  S
C2553      C2554   1.416       .  A
C2553      C2557   1.444       .  S
C2554      C2555   1.407       .  A
C2555      C2556   1.395       .  A
C2555      H2568   1.085       .  S
C2556      C2558   1.444       .  S
C2557      N2561   1.157       .  T
C2558      N2562   1.157       .  T
C2559      N2564   1.157       .  T
C2560      N2563   1.157       .  T
C2569      C2570   1.408       .  A
C2569      C2574   1.396       .  A
C2569      C2583   1.445       .  S
C2570      C2575   1.482       .  S
C2570      C2571   1.401       .  A
C2571      C2572   1.400       .  A
C2571      H2590   1.085       .  S
C2572      C2573   1.420       .  A
C2572      C2584   1.444       .  S
C2573      C2574   1.408       .  A
C2574      H2589   1.084       .  S
C2575      C2576   1.402       .  A
C2575      C2580   1.411       .  A
C2576      C2577   1.397       .  A
C2576      H2591   1.085       .  S
C2577      C2578   1.412       .  A
C2577      C2581   1.445       .  S
C2578      C2579   1.404       .  A
C2579      C2580   1.399       .  A
C2579      H2592   1.085       .  S
C2580      C2582   1.444       .  S
C2581      N2585   1.157       .  T
C2582      N2586   1.157       .  T
C2583      N2588   1.157       .  T
C2584      N2587   1.158       .  T
C2593      C2594   1.407       .  A
C2593      C2598   1.396       .  A
C2593      C2607   1.445       .  S
C2594      C2599   1.476       .  S
C2594      C2595   1.401       .  A
C2595      C2596   1.399       .  A
C2595      H2614   1.085       .  S
C2596      C2597   1.416       .  A
C2596      C2608   1.444       .  S
C2597      C2598   1.407       .  A
C2598      H2613   1.085       .  S
C2599      C2600   1.403       .  A
C2599      C2604   1.409       .  A
C2600      C2601   1.399       .  A
C2600      H2615   1.085       .  S
C2601      C2602   1.410       .  A
C2601      C2605   1.444       .  S
C2602      C2603   1.403       .  A
C2603      C2604   1.396       .  A
C2603      H2616   1.085       .  S
C2604      C2606   1.444       .  S
C2605      N2609   1.157       .  T
C2606      N2610   1.157       .  T
C2607      N2612   1.157       .  T
C2608      N2611   1.157       .  T
C2617      C2618   1.408       .  A
C2617      C2622   1.398       .  A
C2617      C2631   1.444       .  S
C2618      C2623   1.481       .  S
C2618      C2619   1.402       .  A
C2619      C2620   1.398       .  A
C2619      H2638   1.085       .  S
C2620      C2621   1.415       .  A
C2620      C2632   1.444       .  S
C2621      C2622   1.407       .  A
C2622      H2637   1.085       .  S
C2623      C2624   1.402       .  A
C2623      C2628   1.408       .  A
C2624      C2625   1.400       .  A
C2624      H2639   1.085       .  S
C2625      C2626   1.415       .  A
C2625      C2629   1.444       .  S
C2626      C2627   1.405       .  A
C2627      C2628   1.397       .  A
C2627      H2640   1.085       .  S
C2628      C2630   1.444       .  S
C2629      N2633   1.157       .  T
C2630      N2634   1.157       .  T
C2631      N2636   1.157       .  T
C2632      N2635   1.157       .  T
C2641      C2642   1.409       .  A
C2641      C2646   1.401       .  A
C2641      C2655   1.444       .  S
C2642      C2647   1.481       .  S
C2642      C2643   1.400       .  A
C2643      C2644   1.398       .  A
C2643      H2662   1.085       .  S
C2644      C2645   1.416       .  A
C2644      C2656   1.445       .  S
C2645      C2646   1.405       .  A
C2646      H2661   1.085       .  S
C2647      C2648   1.401       .  A
C2647      C2652   1.409       .  A
C2648      C2649   1.399       .  A
C2648      H2663   1.085       .  S
C2649      C2650   1.414       .  A
C2649      C2653   1.444       .  S
C2650      C2651   1.406       .  A
C2651      C2652   1.400       .  A
C2651      H2664   1.085       .  S
C2652      C2654   1.444       .  S
C2653      N2657   1.157       .  T
C2654      N2658   1.157       .  T
C2655      N2660   1.157       .  T
C2656      N2659   1.157       .  T
C2665      C2666   1.409       .  A
C2665      C2670   1.398       .  A
C2665      C2679   1.444       .  S
C2666      C2671   1.479       .  S
C2666      C2667   1.401       .  A
C2667      C2668   1.396       .  A
C2667      H2686   1.085       .  S
C2668      C2669   1.415       .  A
C2668      C2680   1.445       .  S
C2669      C2670   1.404       .  A
C2670      H2685   1.085       .  S
C2671      C2672   1.402       .  A
C2671      C2676   1.408       .  A
C2672      C2673   1.398       .  A
C2672      H2687   1.085       .  S
C2673      C2674   1.416       .  A
C2673      C2677   1.444       .  S
C2674      C2675   1.407       .  A
C2675      C2676   1.397       .  A
C2675      H2688   1.084       .  S
C2676      C2678   1.445       .  S
C2677      N2681   1.157       .  T
C2678      N2682   1.157       .  T
C2679      N2684   1.157       .  T
C2680      N2683   1.157       .  T
C2689      C2690   1.409       .  A
C2689      C2694   1.400       .  A
C2689      C2703   1.444       .  S
C2690      C2695   1.482       .  S
C2690      C2691   1.402       .  A
C2691      C2692   1.398       .  A
C2691      H2710   1.085       .  S
C2692      C2693   1.412       .  A
C2692      C2704   1.444       .  S
C2693      C2694   1.405       .  A
C2694      H2709   1.085       .  S
C2695      C2696   1.402       .  A
C2695      C2700   1.409       .  A
C2696      C2697   1.402       .  A
C2696      H2711   1.085       .  S
C2697      C2698   1.416       .  A
C2697      C2701   1.444       .  S
C2698      C2699   1.406       .  A
C2699      C2700   1.397       .  A
C2699      H2712   1.085       .  S
C2700      C2702   1.445       .  S
C2701      N2705   1.157       .  T
C2702      N2706   1.157       .  T
C2703      N2708   1.157       .  T
C2704      N2707   1.157       .  T
C2713      C2714   1.410       .  A
C2713      C2718   1.397       .  A
C2713      C2727   1.444       .  S
C2714      C2719   1.480       .  S
C2714      C2715   1.401       .  A
C2715      C2716   1.400       .  A
C2715      H2734   1.085       .  S
C2716      C2717   1.416       .  A
C2716      C2728   1.444       .  S
C2717      C2718   1.404       .  A
C2718      H2733   1.085       .  S
C2719      C2720   1.401       .  A
C2719      C2724   1.409       .  A
C2720      C2721   1.400       .  A
C2720      H2735   1.085       .  S
C2721      C2722   1.414       .  A
C2721      C2725   1.443       .  S
C2722      C2723   1.405       .  A
C2723      C2724   1.396       .  A
C2723      H2736   1.085       .  S
C2724      C2726   1.445       .  S
C2725      N2729   1.157       .  T
C2726      N2730   1.157       .  T
C2727      N2732   1.157       .  T
C2728      N2731   1.157       .  T
C2737      C2738   1.409       .  A
C2737      C2742   1.399       .  A
C2737      C2751   1.444       .  S
C2738      C2743   1.478       .  S
C2738      C2739   1.401       .  A
C2739      C2740   1.398       .  A
C2739      H2758   1.085       .  S
C2740      C2741   1.414       .  A
C2740      C2752   1.444       .  S
C2741      C2742   1.405       .  A
C2742      H2757   1.084       .  S
C2743      C2744   1.399       .  A
C2743      C2748   1.409       .  A
C2744      C2745   1.395       .  A
C2744      H2759   1.085       .  S
C2745      C2746   1.416       .  A
C2745      C2749   1.445       .  S
C2746      C2747   1.407       .  A
C2747      C2748   1.402       .  A
C2747      H2760   1.084       .  S
C2748      C2750   1.443       .  S
C2749      N2753   1.157       .  T
C2750      N2754   1.157       .  T
C2751      N2756   1.157       .  T
C2752      N2755   1.157       .  T
C2761      C2762   1.408       .  A
C2761      C2766   1.399       .  A
C2761      C2775   1.444       .  S
C2762      C2767   1.483       .  S
C2762      C2763   1.401       .  A
C2763      C2764   1.401       .  A
C2763      H2782   1.085       .  S
C2764      C2765   1.418       .  A
C2764      C2776   1.444       .  S
C2765      C2766   1.408       .  A
C2766      H2781   1.084       .  S
C2767      C2768   1.401       .  A
C2767      C2772   1.410       .  A
C2768      C2769   1.399       .  A
C2768      H2783   1.085       .  S
C2769      C2770   1.415       .  A
C2769      C2773   1.444       .  S
C2770      C2771   1.404       .  A
C2771      C2772   1.401       .  A
C2771      H2784   1.085       .  S
C2772      C2774   1.444       .  S
C2773      N2777   1.157       .  T
C2774      N2778   1.157       .  T
C2775      N2780   1.157       .  T
C2776      N2779   1.157       .  T
C2785      C2786   1.411       .  A
C2785      C2790   1.399       .  A
C2785      C2799   1.444       .  S
C2786      C2791   1.486       .  S
C2786      C2787   1.404       .  A
C2787      C2788   1.402       .  A
C2787      H2806   1.085       .  S
C2788      C2789   1.413       .  A
C2788      C2800   1.444       .  S
C2789      C2790   1.404       .  A
C2790      H2805   1.085       .  S
C2791      C2792   1.402       .  A
C2791      C2796   1.409       .  A
C2792      C2793   1.401       .  A
C2792      H2807   1.085       .  S
C2793      C2794   1.417       .  A
C2793      C2797   1.444       .  S
C2794      C2795   1.407       .  A
C2795      C2796   1.400       .  A
C2795      H2808   1.084       .  S
C2796      C2798   1.444       .  S
C2797      N2801   1.157       .  T
C2798      N2802   1.157       .  T
C2799      N2804   1.157       .  T
C2800      N2803   1.157       .  T
C2809      C2810   1.411       .  A
C2809      C2814   1.399       .  A
C2809      C2823   1.444       .  S
C2810      C2815   1.488       .  S
C2810      C2811   1.403       .  A
C2811      C2812   1.399       .  A
C2811      H2830   1.085       .  S
C2812      C2813   1.417       .  A
C2812      C2824   1.444       .  S
C2813      C2814   1.407       .  A
C2814      H2829   1.084       .  S
C2815      C2816   1.405       .  A
C2815      C2820   1.412       .  A
C2816      C2817   1.402       .  A
C2816      H2831   1.085       .  S
C2817      C2818   1.414       .  A
C2817      C2821   1.444       .  S
C2818      C2819   1.404       .  A
C2819      C2820   1.397       .  A
C2819      H2832   1.083       .  S
C2820      C2822   1.445       .  S
C2821      N2825   1.157       .  T
C2822      N2826   1.157       .  T
C2823      N2828   1.157       .  T
C2824      N2827   1.157       .  T
