geometry optimzed in LAMMPS
_audit_creation_date              2020-12-01 
_audit_creation_method            'lammps2cif' 
_symmetry_space_group_name_H-M    'P1' 
_symmetry_Int_Tables_number       1 
_symmetry_cell_setting            triclinic 
loop_ 
_symmetry_equiv_pos_as_xyz 
  x,y,z 
_cell_length_a                    67.61068935 
_cell_length_b                    67.64633921023652 
_cell_length_c                    67.63525906869873 
_cell_angle_alpha                 90.1115669288677 
_cell_angle_beta                  90.0007184584525 
_cell_angle_gamma                 89.984391081848 
loop_ 
_atom_site_label 
_atom_site_type_symbol 
_atom_site_fract_x 
_atom_site_fract_y 
_atom_site_fract_z 
_atom_site_charge 
C1          C  0.64417053  0.69497640  0.79935196     0.81100
N2          N  0.64946150  0.70062888  0.81791006    -0.77200
C3          C  0.66297469  0.69018272  0.82844673     0.83600
N4          N  0.67117189  0.67378723  0.82022645    -0.77100
C5          C  0.66616025  0.66787436  0.80168338     0.83700
N6          N  0.65273801  0.67862191  0.79122009    -0.78900
C7          C  0.67359601  0.86214122  0.62653147     0.81100
N8          N  0.68143815  0.87766123  0.63660776    -0.77200
C9          C  0.69992983  0.88427316  0.63242313     0.83600
N10         N  0.71057152  0.87523377  0.61796659    -0.77100
C11         C  0.70301626  0.85962407  0.60781945     0.83700
N12         N  0.68450292  0.85311665  0.61224388    -0.78900
C13         C  0.86838938  0.67893468  0.61943638     0.81100
N14         N  0.85903135  0.66264573  0.62651662    -0.77200
C15         C  0.86527572  0.65382673  0.64341508     0.83600
N16         N  0.88087667  0.66163857  0.65335888    -0.77100
C17         C  0.89026445  0.67802822  0.64662104     0.83700
N18         N  0.88393511  0.68661393  0.62960103    -0.78900
C19         C  0.83545296  0.83979682  0.84089057     0.81100
N20         N  0.82773901  0.85545293  0.83098125    -0.77200
C21         C  0.83756749  0.86347094  0.81543796     0.83600
N22         N  0.85525746  0.85581120  0.80993685    -0.77100
C23         C  0.86316605  0.84022791  0.81973770     0.83700
N24         N  0.85318345  0.83222943  0.83520090    -0.78900
O25         O  0.71445828  0.76192065  0.96121762    -0.73500
O26         O  0.74388955  0.78918952  0.00138065    -0.73600
O27         O  0.74415039  0.78889186  0.96129884    -0.73600
O28         O  0.71431849  0.76212246  0.00151372    -0.73700
O29         O  0.73671791  0.73796448  0.00155922    -0.73600
O30         O  0.76622902  0.76444129  0.96166835    -0.73600
O31         O  0.76606942  0.76485713  0.00153683    -0.73600
O32         O  0.73681874  0.73772215  0.96141476    -0.73600
Ni33       Ni  0.72835832  0.77639483  0.98135415     1.25400
Ni34       Ni  0.75218523  0.75037589  0.98156970     1.25400
C35         C  0.72107893  0.74553143  0.95433400     0.88600
C36         C  0.75992412  0.78157595  0.00801873     0.88600
C37         C  0.76012163  0.78095881  0.95480368     0.88600
C38         C  0.72093038  0.74578012  0.00847277     0.88800
O39         O  0.99917184  0.73824575  0.74681818    -0.73500
O40         O  0.03687159  0.76602616  0.77874514    -0.73600
O41         O  0.99673063  0.76557553  0.77588969    -0.73600
O42         O  0.03912469  0.73883246  0.74962086    -0.73700
O43         O  0.04099755  0.76350674  0.72789290    -0.73600
O44         O  0.99735585  0.78901169  0.75277574    -0.73600
O45         O  0.03714378  0.79065157  0.75685968    -0.73600
O46         O  0.00132448  0.76177289  0.72387603    -0.73600
Ni47       Ni  0.01791950  0.75132021  0.76360521     1.25400
Ni48       Ni  0.01924518  0.77710631  0.73957443     1.25400
C49         C  0.99420894  0.74532631  0.72997546     0.88600
C50         C  0.04331653  0.78285693  0.77297028     0.88600
C51         C  0.98973987  0.78147612  0.76835677     0.88600
C52         C  0.04719710  0.74692745  0.73454175     0.88800
O53         O  0.78094572  0.00024432  0.70583238    -0.73500
O54         O  0.80707986  0.03856184  0.73817600    -0.73600
O55         O  0.80486556  0.99829056  0.73755909    -0.73600
O56         O  0.78275308  0.04034297  0.70649247    -0.73700
O57         O  0.75702564  0.04181006  0.72705587    -0.73600
O58         O  0.77827841  0.99916642  0.75696750    -0.73600
O59         O  0.78124741  0.03915316  0.75862703    -0.73600
O60         O  0.75435743  0.00185043  0.72526054    -0.73600
Ni61       Ni  0.79487295  0.01935992  0.72131972     1.25400
Ni62       Ni  0.76681837  0.02055190  0.74270055     1.25400
C63         C  0.76345352  0.99455709  0.71028460     0.88600
C64         C  0.79849388  0.04528266  0.75367249     0.88600
C65         C  0.79474391  0.99128744  0.75198394     0.88600
C66         C  0.76630610  0.04814560  0.71186094     0.88800
C67         C  0.65637483  0.65712498  0.15037650     0.81100
N68         N  0.64267090  0.66695950  0.16134006    -0.77200
C69         C  0.63648258  0.68529799  0.15589456     0.83600
N70         N  0.64418575  0.69378816  0.13942032    -0.77100
C71         C  0.65795420  0.68418976  0.12842724     0.83700
N72         N  0.66393881  0.66590161  0.13401882    -0.78900
C73         C  0.67806135  0.18266180  0.63287666     0.81100
N74         N  0.68841478  0.19305065  0.61915131    -0.77200
C75         C  0.70674625  0.18704904  0.61348578     0.83600
N76         N  0.71489305  0.17072122  0.62177960    -0.77100
C77         C  0.70491567  0.16042528  0.63580463     0.83700
N78         N  0.68650758  0.16644664  0.64116015    -0.78900
C79         C  0.16002059  0.68322623  0.66176937     0.81100
N80         N  0.17150674  0.66946364  0.67069781    -0.77200
C81         C  0.18780924  0.66222201  0.66156426     0.83600
N82         N  0.19263295  0.66875693  0.64323602    -0.77100
C83         C  0.18107924  0.68230666  0.63397874     0.83700
N84         N  0.16487489  0.68953689  0.64337309    -0.78900
C85         C  0.85786087  0.67509344  0.32296232     0.81100
N86         N  0.84808739  0.65968269  0.31451377    -0.77200
C87         C  0.85415490  0.65193835  0.29694274     0.83600
N88         N  0.87017532  0.65987875  0.28778394    -0.77100
C89         C  0.88012916  0.67531363  0.29595974     0.83700
N90         N  0.87381389  0.68281682  0.31351375    -0.78900
O91         O  0.99776629  0.76631332  0.18046246    -0.73500
O92         O  0.03838845  0.73927347  0.20890732    -0.73600
O93         O  0.99830795  0.73752742  0.20801897    -0.73600
O94         O  0.03766302  0.76820966  0.18135694    -0.73700
O95         O  0.03609148  0.79096602  0.20517669    -0.73600
O96         O  0.99737125  0.76004553  0.23217336    -0.73600
O97         O  0.03718163  0.76219819  0.23258105    -0.73600
O98         O  0.99627121  0.78896037  0.20441148    -0.73600
Ni99       Ni  0.01810285  0.75200169  0.19383656     1.25400
Ni100      Ni  0.01664125  0.77634815  0.21942984     1.25400
C101        C  0.99029984  0.78209870  0.18777585     0.88600
C102        C  0.04461653  0.74635704  0.22535183     0.88600
C103        C  0.99142911  0.74377019  0.22453441     0.88600
C104        C  0.04332185  0.78467964  0.18884583     0.88800
C105        C  0.83880846  0.84698289  0.11620357     0.81100
N106        N  0.83154554  0.86258382  0.12652729    -0.77200
C107        C  0.84174233  0.87018811  0.14203252     0.83600
N108        N  0.85915306  0.86182198  0.14739053    -0.77100
C109        C  0.86654759  0.84613208  0.13729753     0.83700
N110        N  0.85640078  0.83888411  0.12153579    -0.78900
C111        C  0.68692315  0.89043714  0.33261025     0.81100
N112        N  0.69655613  0.88037083  0.34691893    -0.77200
C113        C  0.68833589  0.86440311  0.35564952     0.83600
N114        N  0.67012093  0.85829920  0.34970293    -0.77100
C115        C  0.66019100  0.86819924  0.33526453     0.83700
N116        N  0.66874088  0.88426563  0.32676369    -0.78900
O117        O  0.77506372  0.03886979  0.20735557    -0.73500
O118        O  0.75067526  0.99904508  0.23871187    -0.73600
O119        O  0.75134844  0.03874418  0.23951255    -0.73600
O120        O  0.77439517  0.99879075  0.20675223    -0.73700
O121        O  0.80026719  0.99737391  0.22716005    -0.73600
O122        O  0.77833475  0.03902265  0.25848067    -0.73600
O123        O  0.77653665  0.99920411  0.25919554    -0.73600
O124        O  0.80207160  0.03748597  0.22623118    -0.73600
Ni125      Ni  0.76197433  0.01890998  0.22233057     1.25400
Ni126      Ni  0.79031352  0.01824963  0.24341733     1.25400
C127        C  0.79248330  0.04489772  0.21167423     0.88600
C128        C  0.75935497  0.99286272  0.25432446     0.88600
C129        C  0.76095002  0.04535713  0.25446148     0.88600
C130        C  0.79084139  0.99102058  0.21200307     0.88800
C131        C  0.34494937  0.88648553  0.62602405     0.81100
N132        N  0.33471205  0.87801022  0.61106020    -0.77200
C133        C  0.34291872  0.86353753  0.59987439     0.83600
N134        N  0.36166264  0.85742902  0.60387833    -0.77100
C135        C  0.37206971  0.86576423  0.61894066     0.83700
N136        N  0.36361189  0.88032540  0.62993742    -0.78900
O137        O  0.23383104  0.99958011  0.73044457    -0.73500
O138        O  0.26216640  0.03775177  0.69929672    -0.73600
O139        O  0.26087509  0.99800308  0.70061730    -0.73600
O140        O  0.23510640  0.03976397  0.72872961    -0.73700
O141        O  0.25922099  0.03928514  0.75125137    -0.73600
O142        O  0.28545248  0.99817465  0.72255770    -0.73600
O143        O  0.28634095  0.03775362  0.72172008    -0.73600
O144        O  0.25866331  0.99937977  0.75212361    -0.73600
Ni145      Ni  0.24705672  0.01875485  0.71401199     1.25400
Ni146      Ni  0.27322080  0.01867726  0.73773821     1.25400
C147        C  0.24184845  0.99295513  0.74631280     0.88600
C148        C  0.27918707  0.04364790  0.70524472     0.88600
C149        C  0.27765425  0.99155941  0.70661291     0.88600
C150        C  0.24299428  0.04644751  0.74458562     0.88800
C151        C  0.18451626  0.87962950  0.82414532     0.81100
N152        N  0.16777730  0.87021552  0.81817271    -0.77200
C153        C  0.16131427  0.85374041  0.82762085     0.83600
N154        N  0.17177879  0.84668643  0.84317247    -0.77100
C155        C  0.18859444  0.85576482  0.84929919     0.83700
N156        N  0.19495728  0.87220597  0.83966653    -0.78900
C157        C  0.38297376  0.69283904  0.83736174     0.81100
N158        N  0.39583473  0.70214375  0.82506231    -0.77200
C159        C  0.40180112  0.69314756  0.80807889     0.83600
N160        N  0.39465233  0.67496060  0.80338254    -0.77100
C161        C  0.38192857  0.66551210  0.81571192     0.83700
N162        N  0.37617265  0.67460182  0.83261852    -0.78900
O163        O  0.28242771  0.79203523  0.96093939    -0.73500
O164        O  0.31239376  0.76448733  0.99986912    -0.73600
O165        O  0.31327182  0.76673883  0.95980921    -0.73600
O166        O  0.28169223  0.78948507  0.00055859    -0.73700
O167        O  0.26063436  0.76420360  0.99859610    -0.73600
O168        O  0.29247485  0.74129076  0.95780895    -0.73600
O169        O  0.29166323  0.73890443  0.99793349    -0.73600
O170        O  0.26153302  0.76666181  0.95873288    -0.73600
Ni171      Ni  0.29822517  0.77902439  0.98032824     1.25400
Ni172      Ni  0.27585921  0.75179187  0.97817893     1.25400
C173        C  0.26691754  0.78407670  0.95356129     0.88600
C174        C  0.30665011  0.74747703  0.00577828     0.88600
C175        C  0.30797348  0.75038694  0.95184416     0.88600
C176        C  0.26590843  0.78072764  0.00621477     0.88800
C177        C  0.86918185  0.36521261  0.62779255     0.81100
N178        N  0.88478896  0.35649428  0.63699627    -0.77200
C179        C  0.89071444  0.36266350  0.65521088     0.83600
N180        N  0.88087351  0.37776000  0.66418107    -0.77100
C181        C  0.86525286  0.38656183  0.65515450     0.83700
N182        N  0.85947279  0.38016714  0.63701904    -0.78900
O183        O  0.00374316  0.27322488  0.77712531    -0.73500
O184        O  0.04338835  0.30145714  0.74783605    -0.73600
O185        O  0.00345781  0.29944854  0.74678730    -0.73600
O186        O  0.04393202  0.27545798  0.77816338    -0.73700
O187        O  0.04539440  0.25038132  0.75672308    -0.73600
O188        O  0.00507521  0.27458095  0.72519671    -0.73600
O189        O  0.04521560  0.27646653  0.72642243    -0.73600
O190        O  0.00570659  0.24830310  0.75557643    -0.73600
Ni191      Ni  0.02352442  0.28827680  0.76325777     1.25400
Ni192      Ni  0.02538603  0.26157217  0.74019482     1.25400
C193        C  0.99837109  0.25599628  0.77125826     0.88600
C194        C  0.05099719  0.29351668  0.73236942     0.88600
C195        C  0.99769646  0.29114200  0.73075116     0.88600
C196        C  0.05134903  0.25896765  0.77253128     0.88800
C197        C  0.86249175  0.15580883  0.83126464     0.81100
N198        N  0.85212977  0.16437917  0.84614252    -0.77200
C199        C  0.85920773  0.18049345  0.85576678     0.83600
N200        N  0.87694352  0.18820295  0.85022899    -0.77100
C201        C  0.88753653  0.17988525  0.83523707     0.83700
N202        N  0.88014726  0.16368148  0.82585485    -0.78900
C203        C  0.67356526  0.38248786  0.80964434     0.81100
N204        N  0.65917256  0.37328774  0.79900738    -0.77200
C205        C  0.65055591  0.35651131  0.80586187     0.83600
N206        N  0.65658948  0.34882712  0.82337703    -0.77100
C207        C  0.67106296  0.35769935  0.83411905     0.83700
N208        N  0.67946462  0.37453763  0.82711587    -0.78900
O209        O  0.72485749  0.27103332  0.99778580    -0.73500
O210        O  0.75594384  0.24466733  0.95835367    -0.73600
O211        O  0.75518002  0.24477037  0.99797190    -0.73600
O212        O  0.72554547  0.27123137  0.95747655    -0.73700
O213        O  0.74750443  0.29583851  0.95793317    -0.73600
O214        O  0.77676443  0.26962975  0.99824089    -0.73600
O215        O  0.77752911  0.26959399  0.95865679    -0.73600
O216        O  0.74660077  0.29575930  0.99824389    -0.73600
Ni217      Ni  0.73950711  0.25709441  0.97783667     1.25400
Ni218      Ni  0.76275711  0.28365038  0.97826971     1.25400
C219        C  0.73096879  0.28744843  0.00503651     0.88600
C220        C  0.77222343  0.25245670  0.95259081     0.88600
C221        C  0.77116294  0.25268329  0.00443474     0.88600
C222        C  0.73196826  0.28774852  0.95077197     0.88800
C223        C  0.66996155  0.36388526  0.15621689     0.81100
N224        N  0.67659441  0.35648560  0.13882091    -0.77200
C225        C  0.67149300  0.33803391  0.13273810     0.83600
N226        N  0.65951909  0.32681471  0.14446795    -0.77100
C227        C  0.65264181  0.33418119  0.16196677     0.83700
N228        N  0.65797869  0.35267225  0.16762767    -0.78900
C229        C  0.38217503  0.69436102  0.15995185     0.81100
N230        N  0.37443598  0.67747460  0.16744868    -0.77200
C231        C  0.36093271  0.66690059  0.15701432     0.83600
N232        N  0.35506736  0.67348189  0.13895282    -0.77100
C233        C  0.36258243  0.69049719  0.13135624     0.83700
N234        N  0.37617375  0.70077092  0.14195749    -0.78900
C235        C  0.69715597  0.17760191  0.35863033     0.81100
N236        N  0.67860825  0.18363038  0.35403594    -0.77200
C237        C  0.66749475  0.17338744  0.34085846     0.83600
N238        N  0.67530804  0.15717020  0.33187134    -0.77100
C239        C  0.69404446  0.15111613  0.33611866     0.83700
N240        N  0.70482321  0.16132738  0.34971140    -0.78900
C241        C  0.33631260  0.17598747  0.35305233     0.81100
N242        N  0.32715418  0.16173304  0.34218962    -0.77200
C243        C  0.33623985  0.15399038  0.32599252     0.83600
N244        N  0.35436515  0.16077109  0.32063652    -0.77100
C245        C  0.36350807  0.17515986  0.33119440     0.83700
N246        N  0.35440098  0.18261116  0.34742958    -0.78900
C247        C  0.18154665  0.88217625  0.12721300     0.81100
N248        N  0.16453690  0.87433127  0.13457329    -0.77200
C249        C  0.15773681  0.85668656  0.12773248     0.83600
N250        N  0.16822975  0.84685066  0.11378901    -0.77100
C251        C  0.18517282  0.85443728  0.10643147     0.83700
N252        N  0.19175979  0.87214435  0.11311479    -0.78900
C253        C  0.33344417  0.85853150  0.34818220     0.81100
N254        N  0.35215884  0.85244635  0.34426536    -0.77200
C255        C  0.36295129  0.86133896  0.32994235     0.83600
N256        N  0.35488312  0.87639125  0.31946395    -0.77100
C257        C  0.33617448  0.88267557  0.32321008     0.83700
N258        N  0.32542476  0.87361004  0.33758433    -0.78900
O259        O  0.23851933  0.04103323  0.21467761    -0.73500
O260        O  0.26134173  0.99838012  0.24387105    -0.73600
O261        O  0.26217310  0.03830281  0.24663983    -0.73600
O262        O  0.23765018  0.00135006  0.21180801    -0.73700
O263        O  0.26460596  0.00101269  0.19279411    -0.73600
O264        O  0.28821103  0.03995576  0.22646890    -0.73600
O265        O  0.28842402  0.99978703  0.22513788    -0.73600
O266        O  0.26447450  0.04105802  0.19439713    -0.73600
Ni267      Ni  0.24901434  0.01970459  0.22995493     1.25400
Ni268      Ni  0.27741839  0.02044671  0.20900290     1.25400
C269        C  0.24761425  0.04802754  0.19963171     0.88600
C270        C  0.27869903  0.99215251  0.23950653     0.88600
C271        C  0.27895865  0.04568717  0.24198335     0.88600
C272        C  0.24700082  0.99513392  0.19656732     0.88800
C273        C  0.37819483  0.17316366  0.63152564     0.81100
N274        N  0.37103448  0.15586426  0.63875133    -0.77200
C275        C  0.35398603  0.14804045  0.63153122     0.83600
N276        N  0.34395549  0.15782487  0.61718424    -0.77100
C277        C  0.35090479  0.17513183  0.60984530     0.83700
N278        N  0.36798140  0.18271326  0.61714461    -0.78900
C279        C  0.16237226  0.36384434  0.66133624     0.81100
N280        N  0.17173226  0.37975450  0.66944249    -0.77200
C281        C  0.18735397  0.38833830  0.66001973     0.83600
N282        N  0.19360265  0.38072465  0.64248808    -0.77100
C283        C  0.18440643  0.36489676  0.63426416     0.83700
N284        N  0.16881627  0.35660995  0.64375264    -0.78900
C285        C  0.17636305  0.35789609  0.33807428     0.81100
N286        N  0.16180333  0.34936035  0.32712473    -0.77200
C287        C  0.15722371  0.35636493  0.30884446     0.83600
N288        N  0.16751648  0.37198853  0.30147539    -0.77100
C289        C  0.18205598  0.38079384  0.31229375     0.83700
N290        N  0.18631106  0.37362824  0.33056715    -0.78900
C291        C  0.84533463  0.16612130  0.14288635     0.81100
N292        N  0.86212987  0.17490162  0.14964291    -0.77200
C293        C  0.86957854  0.19117745  0.14054615     0.83600
N294        N  0.86018002  0.19857983  0.12448868    -0.77100
C295        C  0.84328866  0.19018851  0.11777915     0.83700
N296        N  0.83590022  0.17398995  0.12699484    -0.78900
C297        C  0.86633454  0.36649210  0.32939264     0.81100
N298        N  0.85608469  0.38086658  0.31993610    -0.77200
C299        C  0.86125023  0.38693597  0.30155860     0.83600
N300        N  0.87703860  0.37837813  0.29249052    -0.77100
C301        C  0.88767170  0.36402639  0.30176445     0.83700
N302        N  0.88217644  0.35815546  0.32020866    -0.78900
O303        O  0.00329514  0.29741013  0.21392575    -0.73500
O304        O  0.04124351  0.26802598  0.18385186    -0.73600
O305        O  0.00119888  0.26960872  0.18529569    -0.73600
O306        O  0.04329730  0.29600764  0.21275313    -0.73700
O307        O  0.04313511  0.27223493  0.23547082    -0.73600
O308        O  0.00113638  0.24581043  0.20807003    -0.73600
O309        O  0.04088205  0.24415649  0.20653741    -0.73600
O310        O  0.00294302  0.27374933  0.23677313    -0.73600
Ni311      Ni  0.02230536  0.28358452  0.19813727     1.25400
Ni312      Ni  0.02207186  0.25816905  0.22255509     1.25400
C313        C  0.99671824  0.29042452  0.23023730     0.88600
C314        C  0.04702727  0.25108361  0.19002052     0.88600
C315        C  0.99416025  0.25345514  0.19223624     0.88600
C316        C  0.05007281  0.28857074  0.22880606     0.88800
C317        C  0.17895231  0.65617907  0.30352568     0.81100
N318        N  0.18394472  0.66431923  0.32118098    -0.77200
C319        C  0.17332670  0.67949348  0.32895400     0.83600
N320        N  0.15745301  0.68651476  0.31888638    -0.77100
C321        C  0.15243115  0.67862981  0.30110397     0.83700
N322        N  0.16331546  0.66361678  0.29338708    -0.78900
C323        C  0.15843703  0.18245004  0.12054684     0.81100
N324        N  0.16917997  0.19334461  0.10747115    -0.77200
C325        C  0.18760841  0.18746011  0.10197267     0.83600
N326        N  0.19537362  0.17073856  0.10986492    -0.77100
C327        C  0.18500742  0.15986555  0.12313061     0.83700
N328        N  0.16652883  0.16578342  0.12835860    -0.78900
C329        C  0.39243350  0.34276781  0.16160460     0.81100
N330        N  0.38314310  0.35848988  0.17002061    -0.77200
C331        C  0.36903239  0.36862996  0.15995872     0.83600
N332        N  0.36424042  0.36289312  0.14129949    -0.77100
C333        C  0.37319878  0.34703505  0.13285626     0.83700
N334        N  0.38726122  0.33706682  0.14307407    -0.78900
C335        C  0.19596760  0.16664476  0.81838442     0.81100
N336        N  0.17851454  0.17561633  0.81416382    -0.77200
C337        C  0.17234447  0.19165275  0.82454403     0.83600
N338        N  0.18389370  0.19872136  0.83933129    -0.77100
C339        C  0.20143113  0.19001200  0.84386934     0.83700
N340        N  0.20739047  0.17395291  0.83328438    -0.78900
C341        C  0.37977561  0.38142629  0.81209776     0.81100
N342        N  0.37481178  0.37511664  0.83046828    -0.77200
C343        C  0.38268181  0.35831817  0.83804728     0.83600
N344        N  0.39585741  0.34778178  0.82710120    -0.77100
C345        C  0.40085306  0.35383641  0.80860240     0.83700
N346        N  0.39265402  0.37057416  0.80113291    -0.78900
O347        O  0.29241831  0.25083717  0.00039474    -0.73500
O348        O  0.32524463  0.27560551  0.96109687    -0.73600
O349        O  0.32263618  0.27701624  0.00097226    -0.73600
O350        O  0.29515060  0.24892067  0.96030292    -0.73700
O351        O  0.27415180  0.27414045  0.95725698    -0.73600
O352        O  0.30054315  0.30139710  0.99943889    -0.73600
O353        O  0.30398251  0.30076254  0.95979557    -0.73600
O354        O  0.27047265  0.27518979  0.99726921    -0.73600
Ni355      Ni  0.30962293  0.26218180  0.98075385     1.25400
Ni356      Ni  0.28649446  0.28871090  0.97832436     1.25400
C357        C  0.27605126  0.25906337  0.00542387     0.88600
C358        C  0.32014692  0.29257195  0.95433328     0.88600
C359        C  0.31609804  0.29371730  0.00706150     0.88600
C360        C  0.28027806  0.25700949  0.95184555     0.88800
O361        O  0.27621681  0.53893704  0.25619228    -0.73500
O362        O  0.30765813  0.49705284  0.23399951    -0.73600
O363        O  0.30731269  0.53736076  0.23112077    -0.73600
O364        O  0.27656942  0.49886578  0.25922110    -0.73700
O365        O  0.25639143  0.49631461  0.23323325    -0.73600
O366        O  0.28600233  0.53576209  0.20603637    -0.73600
O367        O  0.28708365  0.49572170  0.20830466    -0.73600
O368        O  0.25509454  0.53621132  0.23104250    -0.73600
Ni369      Ni  0.29274335  0.51813684  0.24605057     1.25400
Ni370      Ni  0.27046588  0.51595187  0.21874980     1.25400
C371        C  0.26038162  0.54438829  0.24727727     0.88600
C372        C  0.30216378  0.48913108  0.21764793     0.88600
C373        C  0.30125319  0.54342851  0.21422814     0.88600
C374        C  0.26165060  0.49096747  0.25059053     0.88800
O375        O  0.50144027  0.25153132  0.23371739    -0.73500
O376        O  0.53736929  0.22220322  0.26621294    -0.73600
O377        O  0.49741306  0.22543052  0.26333240    -0.73600
O378        O  0.54119814  0.24816647  0.23612655    -0.73700
O379        O  0.54220444  0.27279185  0.25802920    -0.73600
O380        O  0.49776570  0.24997476  0.28538070    -0.73600
O381        O  0.53782395  0.24680755  0.28811616    -0.73600
O382        O  0.50227861  0.27625931  0.25550717    -0.73600
Ni383      Ni  0.51935512  0.23593596  0.24913415     1.25400
Ni384      Ni  0.52004042  0.26234184  0.27256787     1.25400
C385        C  0.49589992  0.26877841  0.23930815     0.88600
C386        C  0.54379073  0.22976618  0.28239002     0.88600
C387        C  0.49000235  0.23410561  0.27843073     0.88600
C388        C  0.54892626  0.26423336  0.24245091     0.88800
O389        O  0.25156844  0.29960741  0.46543517    -0.73500
O390        O  0.27816659  0.27093948  0.50634168    -0.73600
O391        O  0.27795860  0.26932034  0.46658158    -0.73600
O392        O  0.25191859  0.30110379  0.50546078    -0.73700
O393        O  0.22732969  0.27922808  0.50680583    -0.73600
O394        O  0.25291206  0.24794498  0.46722933    -0.73600
O395        O  0.25359120  0.24897630  0.50685382    -0.73600
O396        O  0.22648024  0.27834327  0.46667780    -0.73600
Ni397      Ni  0.26574465  0.28605062  0.48589176     1.25400
Ni398      Ni  0.23913816  0.26290977  0.48689787     1.25400
C399        C  0.23459309  0.29380428  0.45930565     0.88600
C400        C  0.27049928  0.25495322  0.51296979     0.88600
C401        C  0.26997949  0.25311126  0.46086313     0.88600
C402        C  0.23554319  0.29517968  0.51289465     0.88800
O403        O  0.24223378  0.73669856  0.49991851    -0.73500
O404        O  0.26868797  0.76609170  0.45969277    -0.73600
O405        O  0.26898432  0.76645816  0.49957545    -0.73600
O406        O  0.24182167  0.73649550  0.45990207    -0.73700
O407        O  0.21741434  0.75865904  0.46014557    -0.73600
O408        O  0.24468799  0.78873692  0.49930988    -0.73600
O409        O  0.24422396  0.78813873  0.45955272    -0.73600
O410        O  0.21798546  0.75903745  0.50029443    -0.73600
Ni411      Ni  0.25627557  0.75060481  0.47978880     1.25400
Ni412      Ni  0.23015691  0.77436688  0.47985575     1.25400
C413        C  0.22593367  0.74321478  0.50700795     0.88600
C414        C  0.26092736  0.78200514  0.45301083     0.88600
C415        C  0.26152010  0.78282173  0.50559139     0.88600
C416        C  0.22528452  0.74288956  0.45321774     0.88800
O417        O  0.79328324  0.25918283  0.50059432    -0.73500
O418        O  0.81700550  0.28691672  0.45759190    -0.73600
O419        O  0.81907710  0.28959766  0.49775857    -0.73600
O420        O  0.79103037  0.25681013  0.46075236    -0.73700
O421        O  0.76630649  0.27854907  0.46050011    -0.73600
O422        O  0.79370445  0.31060073  0.49818625    -0.73600
O423        O  0.79241275  0.30890072  0.45806179    -0.73600
O424        O  0.76794747  0.28020589  0.50043301    -0.73600
Ni425      Ni  0.80602505  0.27241070  0.47916176     1.25400
Ni426      Ni  0.77922795  0.29535805  0.47926549     1.25400
C427        C  0.77664443  0.26493801  0.50755472     0.88600
C428        C  0.80857675  0.30233482  0.45061581     0.88600
C429        C  0.81070295  0.30523371  0.50454893     0.88600
C430        C  0.77394359  0.26225673  0.45457363     0.88800
O431        O  0.27902373  0.50671911  0.71577064    -0.73500
O432        O  0.31100894  0.54503099  0.74259656    -0.73600
O433        O  0.31020177  0.50509644  0.74086795    -0.73600
O434        O  0.28021021  0.54660157  0.71744516    -0.73700
O435        O  0.25973831  0.54658061  0.74327658    -0.73600
O436        O  0.28932402  0.50417985  0.76634612    -0.73600
O437        O  0.29064900  0.54412032  0.76851513    -0.73600
O438        O  0.25824703  0.50647091  0.74134744    -0.73600
Ni439      Ni  0.29585041  0.52586155  0.72827298     1.25400
Ni440      Ni  0.27372457  0.52531899  0.75578035     1.25400
C441        C  0.26331678  0.50025079  0.72417130     0.88600
C442        C  0.30607773  0.55092586  0.75993425     0.88600
C443        C  0.30471129  0.49767890  0.75737665     0.88600
C444        C  0.26520243  0.55364073  0.72656602     0.88800
O445        O  0.72548268  0.53574909  0.22461679    -0.73500
O446        O  0.75788353  0.49515420  0.24728480    -0.73600
O447        O  0.75890898  0.53520047  0.24686658    -0.73600
O448        O  0.72459291  0.49583093  0.22534223    -0.73700
O449        O  0.74312278  0.49466120  0.19807334    -0.73600
O450        O  0.77661012  0.53524212  0.21904661    -0.73600
O451        O  0.77661276  0.49512371  0.22015237    -0.73600
O452        O  0.74318061  0.53430312  0.19682338    -0.73600
Ni453      Ni  0.74108472  0.51555535  0.23701759     1.25400
Ni454      Ni  0.76057122  0.51480816  0.20756481     1.25400
C455        C  0.72868876  0.54131685  0.20679042     0.88600
C456        C  0.77259570  0.48841935  0.23740112     0.88600
C457        C  0.77334221  0.54178941  0.23654020     0.88600
C458        C  0.72822447  0.48875433  0.20816586     0.88800
O459        O  0.50527530  0.28283336  0.71111112    -0.73500
O460        O  0.54514806  0.25414838  0.68250360    -0.73600
O461        O  0.50499672  0.25400148  0.68345570    -0.73600
O462        O  0.54530781  0.28323903  0.71028139    -0.73700
O463        O  0.54605748  0.26059827  0.73413846    -0.73600
O464        O  0.50561334  0.23134963  0.70734383    -0.73600
O465        O  0.54590534  0.23164875  0.70653341    -0.73600
O466        O  0.50601206  0.26006727  0.73484256    -0.73600
Ni467      Ni  0.52519511  0.26933697  0.69595768     1.25400
Ni468      Ni  0.52595501  0.24506830  0.72151151     1.25400
C469        C  0.49891930  0.27605912  0.72763448     0.88600
C470        C  0.55235878  0.23833666  0.69004330     0.88600
C471        C  0.49827603  0.23814253  0.69126128     0.88600
C472        C  0.55213494  0.27695712  0.72678681     0.88800
O473        O  0.49411508  0.81034397  0.25905074    -0.73500
O474        O  0.53436725  0.78251651  0.23059860    -0.73600
O475        O  0.49440982  0.78271134  0.23023911    -0.73600
O476        O  0.53404410  0.81044764  0.25940633    -0.73700
O477        O  0.53436243  0.78637662  0.28189758    -0.73600
O478        O  0.49372698  0.75914368  0.25318587    -0.73600
O479        O  0.53358110  0.75854083  0.25314199    -0.73600
O480        O  0.49424651  0.78689585  0.28213777    -0.73600
Ni481      Ni  0.51426436  0.79735625  0.24402709     1.25400
Ni482      Ni  0.51397810  0.77191757  0.26844221     1.25400
C483        C  0.48747786  0.80317282  0.27526617     0.88600
C484        C  0.54036273  0.76573880  0.23701930     0.88600
C485        C  0.48745016  0.76641853  0.23685482     0.88600
C486        C  0.54088699  0.80290337  0.27533684     0.88800
O487        O  0.78958344  0.73878663  0.45336900    -0.73500
O488        O  0.76846728  0.76818961  0.49704117    -0.73600
O489        O  0.76337588  0.76882007  0.45752264    -0.73600
O490        O  0.79450637  0.73827038  0.49322604    -0.73700
O491        O  0.81855503  0.76073614  0.49173592    -0.73600
O492        O  0.78853408  0.78979756  0.45357073    -0.73600
O493        O  0.79215560  0.79082462  0.49342858    -0.73600
O494        O  0.81499680  0.75970231  0.45170042    -0.73600
Ni495      Ni  0.77814003  0.75271247  0.47534958     1.25400
Ni496      Ni  0.80447830  0.77602612  0.47248084     1.25400
C497        C  0.80588113  0.74430244  0.44541595     0.88600
C498        C  0.77666774  0.78444869  0.50229577     0.88600
C499        C  0.77080156  0.78435289  0.44972729     0.88600
C500        C  0.81137291  0.74474416  0.49889629     0.88800
O501        O  0.78948322  0.50389027  0.73281766    -0.73500
O502        O  0.75848138  0.54653047  0.75408551    -0.73600
O503        O  0.75781621  0.50656089  0.75717058    -0.73600
O504        O  0.79035868  0.54387001  0.72968147    -0.73700
O505        O  0.77030381  0.54212620  0.70356981    -0.73600
O506        O  0.73794674  0.50475146  0.73093716    -0.73600
O507        O  0.73841435  0.54474648  0.72805845    -0.73600
O508        O  0.76951080  0.50247097  0.70664883    -0.73600
Ni509      Ni  0.77475215  0.52531405  0.74437599     1.25400
Ni510      Ni  0.75330502  0.52352060  0.71641410     1.25400
C511        C  0.78459153  0.49615101  0.71619272     0.88600
C512        C  0.74317749  0.55259630  0.74465882     0.88600
C513        C  0.74271680  0.49920282  0.74839658     0.88600
C514        C  0.78588885  0.54886637  0.71196428     0.88800
O515        O  0.49665371  0.78830881  0.72287122    -0.73500
O516        O  0.53927633  0.81337713  0.69533917    -0.73600
O517        O  0.49949639  0.81433050  0.69225591    -0.73600
O518        O  0.53638660  0.78769030  0.72577986    -0.73700
O519        O  0.53707147  0.76240721  0.70459002    -0.73600
O520        O  0.50043575  0.78929842  0.67083683    -0.73600
O521        O  0.54031781  0.78824578  0.67404300    -0.73600
O522        O  0.49746911  0.76329912  0.70144654    -0.73600
Ni523      Ni  0.51785456  0.80184903  0.70977179     1.25400
Ni524      Ni  0.51883440  0.77494974  0.68692738     1.25400
C525        C  0.49052462  0.77128830  0.71718207     0.88600
C526        C  0.54698827  0.80486892  0.68024880     0.88600
C527        C  0.49405559  0.80640514  0.67592153     0.88600
C528        C  0.54257976  0.77049289  0.72083803     0.88800
C529        C  0.34969520  0.34643677  0.88167877    -0.27300
C530        C  0.36202083  0.33427356  0.89310290     0.06300
C531        C  0.38158884  0.33097467  0.88687007     0.25900
C532        C  0.38838655  0.33911037  0.86910949    -0.11800
C533        C  0.37587838  0.35088313  0.85743942    -0.25700
C534        C  0.35650896  0.35474648  0.86408377     0.36700
C535        C  0.35367601  0.32389876  0.91048829     0.06300
F536        F  0.39409494  0.31986057  0.89793141    -0.19500
H537        H  0.40340366  0.33613048  0.86442641     0.16100
F538        F  0.34373199  0.36564068  0.85309030    -0.23200
H539        H  0.33447325  0.34889828  0.88599656     0.17900
C540        C  0.34245197  0.33420716  0.92463813     0.25900
C541        C  0.33206993  0.32388630  0.93917501    -0.11800
C542        C  0.33284804  0.30313436  0.94004204    -0.25800
C543        C  0.34497727  0.29289126  0.92659865     0.36800
C544        C  0.35520290  0.30322295  0.91189039    -0.27400
F545        F  0.34125808  0.35424037  0.92419675    -0.19600
H546        H  0.32315217  0.33213973  0.94961693     0.16100
F547        F  0.34601857  0.27285993  0.92687658    -0.23300
H548        H  0.36357410  0.29497060  0.90101285     0.18000
C549        C  0.44366606  0.32123511  0.79297871    -0.27300
C550        C  0.44042311  0.31954923  0.77253657     0.06300
C551        C  0.42387252  0.32886564  0.76410720     0.25900
C552        C  0.41113048  0.34011445  0.77591816    -0.11800
C553        C  0.41447432  0.34193854  0.79634909    -0.25700
C554        C  0.43080524  0.33228039  0.80482932     0.36700
C555        C  0.45451804  0.30815574  0.76023285     0.06300
F556        F  0.41979584  0.32671705  0.74456761    -0.19500
H557        H  0.39844590  0.34715889  0.76914627     0.16100
F558        F  0.43471965  0.33405723  0.82443692    -0.23200
H559        H  0.45638615  0.31421899  0.79971457     0.17900
C560        C  0.46411660  0.31692480  0.74403269     0.25900
C561        C  0.47834593  0.30634505  0.73334548    -0.11800
C562        C  0.48325136  0.28684012  0.73859461    -0.25800
C563        C  0.47318374  0.27793627  0.75452566     0.36800
C564        C  0.45908661  0.28858374  0.76526380    -0.27400
F565        F  0.46029331  0.33596469  0.73900977    -0.19600
H566        H  0.48580316  0.31358662  0.72118909     0.16100
F567        F  0.47680754  0.25890633  0.75972983    -0.23300
H568        H  0.45169487  0.28153602  0.77758206     0.18000
C569        C  0.31937310  0.45306753  0.78790101    -0.27300
C570        C  0.33882825  0.44978907  0.78138094     0.06300
C571        C  0.34699958  0.46245687  0.76711778     0.25900
C572        C  0.33583363  0.47803806  0.75949672    -0.11800
C573        C  0.31636189  0.48135474  0.76600429    -0.25700
C574        C  0.30822484  0.46872985  0.78037938     0.36700
C575        C  0.35031607  0.43293097  0.78927348     0.06300
F576        F  0.36589765  0.45999185  0.76079617    -0.19500
H577        H  0.34251176  0.48760488  0.74855921     0.16100
F578        F  0.28934519  0.47111848  0.78678683    -0.23200
H579        H  0.31267769  0.44326692  0.79861813     0.17900
C580        C  0.35151861  0.42963238  0.80973482     0.25900
C581        C  0.36146677  0.41309093  0.81699133    -0.11800
C582        C  0.37050804  0.39954215  0.80402920    -0.25800
C583        C  0.36980764  0.40320013  0.78353809     0.36800
C584        C  0.35970259  0.41969424  0.77629293    -0.27400
F585        F  0.34317812  0.44248050  0.82273645    -0.19600
H586        H  0.36199765  0.41086038  0.83282648     0.16100
F587        F  0.37819677  0.39053297  0.77040146    -0.23300
H588        H  0.35877950  0.42185591  0.76046619     0.18000
C589        C  0.24400923  0.19955755  0.87984885    -0.27300
C590        C  0.23689861  0.21610335  0.89027717     0.06300
C591        C  0.21793104  0.22334588  0.88578616     0.25900
C592        C  0.20666616  0.21467533  0.87086078    -0.11800
C593        C  0.21379652  0.19836480  0.86008011    -0.25700
C594        C  0.23258592  0.19066946  0.86496170     0.36700
C595        C  0.24923210  0.22620504  0.90547231     0.06300
F596        F  0.21006923  0.23873084  0.89603327    -0.19500
H597        H  0.19223699  0.22087999  0.86780242     0.16100
F598        F  0.24010946  0.17475512  0.85530819    -0.23200
H599        H  0.25859640  0.19373683  0.88293719     0.17900
C600        C  0.25915947  0.21557805  0.92036292     0.25900
C601        C  0.26961184  0.22565108  0.93518355    -0.11800
C602        C  0.27005956  0.24643777  0.93561791    -0.25800
C603        C  0.26057059  0.25698739  0.92046508     0.36800
C604        C  0.25052011  0.24694845  0.90547700    -0.27400
F605        F  0.25809206  0.19555446  0.92110429    -0.19600
H606        H  0.27684269  0.21720192  0.94668793     0.16100
F607        F  0.26121218  0.27703407  0.91994782    -0.23300
H608        H  0.24355591  0.25547459  0.89387216     0.18000
C609        C  0.32730283  0.32794815  0.05011180    -0.27300
C610        C  0.34566315  0.32063309  0.05651944     0.06300
C611        C  0.35480480  0.30540735  0.04566984     0.25900
C612        C  0.34529973  0.29711622  0.02932983    -0.11800
C613        C  0.32658865  0.30392322  0.02333665    -0.25700
C614        C  0.31788178  0.31981753  0.03361403     0.36700
C615        C  0.35426989  0.32776713  0.07538776     0.06300
F616        F  0.37285017  0.29837366  0.05096548    -0.19500
H617        H  0.35252087  0.28513784  0.02153304     0.16100
F618        F  0.29989351  0.32699143  0.02834046    -0.23200
H619        H  0.31981310  0.33944136  0.05836297     0.17900
C620        C  0.35468734  0.34803175  0.08013465     0.25900
C621        C  0.36098870  0.35423961  0.09882504    -0.11800
C622        C  0.36736934  0.34041541  0.11291171    -0.25800
C623        C  0.36759139  0.32022760  0.10793348     0.36800
C624        C  0.36090792  0.31400766  0.08943629    -0.27400
F625        F  0.34906683  0.36183057  0.06671384    -0.19600
H626        H  0.36094945  0.36987440  0.10227266     0.16100
F627        F  0.37331365  0.30637177  0.12125618    -0.23300
H628        H  0.36030347  0.29831544  0.08635870     0.18000
C629        C  0.34946675  0.40553837  0.19766935    -0.27300
C630        C  0.34051804  0.41964158  0.18535322     0.06300
C631        C  0.34114318  0.41684317  0.16473987     0.25900
C632        C  0.35017676  0.40011445  0.15671870    -0.11800
C633        C  0.35918011  0.38599974  0.16897692    -0.25700
C634        C  0.35877127  0.38888687  0.18962145     0.36700
C635        C  0.33068966  0.43726478  0.19400866     0.06300
F636        F  0.33358767  0.43059468  0.15225108    -0.19500
H637        H  0.35048890  0.39845855  0.14079396     0.16100
F638        F  0.36700247  0.37550898  0.20209147    -0.23200
H639        H  0.34907919  0.40732691  0.21357871     0.17900
C640        C  0.31176162  0.44299459  0.18763150     0.25900
C641        C  0.30296785  0.46004015  0.19516479    -0.11800
C642        C  0.31254082  0.47157896  0.20958816    -0.25800
C643        C  0.33123248  0.46551766  0.21650079     0.36800
C644        C  0.34022451  0.44855644  0.20866218    -0.27400
F645        F  0.30145523  0.43182264  0.17449969    -0.19600
H646        H  0.28834730  0.46395487  0.18993072     0.16100
F647        F  0.34093148  0.47601009  0.23060898    -0.23300
H648        H  0.35478064  0.44436883  0.21386768     0.18000
C649        C  0.43617227  0.30951949  0.17319147    -0.27300
C650        C  0.43766221  0.31166303  0.19377739     0.06300
C651        C  0.42429732  0.32418961  0.20366089     0.25900
C652        C  0.40973624  0.33429950  0.19309550    -0.11800
C653        C  0.40806841  0.33200890  0.17250732    -0.25700
C654        C  0.42149869  0.31946563  0.16262112     0.36700
C655        C  0.45309643  0.30076688  0.20485309     0.06300
F656        F  0.42494640  0.32626314  0.22361778    -0.19500
H657        H  0.39957091  0.34370882  0.20112870     0.16100
F658        F  0.42078235  0.31701368  0.14270828    -0.23200
H659        H  0.44652087  0.30024352  0.16523324     0.17900
C660        C  0.45603607  0.28039846  0.20181068     0.25900
C661        C  0.47026439  0.27020160  0.21276538    -0.11800
C662        C  0.48168979  0.28004268  0.22708355    -0.25800
C663        C  0.47894197  0.30050153  0.22988201     0.36800
C664        C  0.46486581  0.31071544  0.21877170    -0.27400
F665        F  0.44467213  0.27018357  0.18877368    -0.19600
H666        H  0.47197094  0.25446475  0.21037721     0.16100
F667        F  0.48990079  0.31073403  0.24324218    -0.23300
H668        H  0.46315768  0.32646778  0.22105155     0.18000
C669        C  0.25804342  0.22645537  0.04748290    -0.27300
C670        C  0.23797519  0.23179668  0.04875226     0.06300
C671        C  0.23090536  0.24706531  0.03655531     0.25900
C672        C  0.24345400  0.25602205  0.02276104    -0.11800
C673        C  0.26328500  0.24996863  0.02079289    -0.25700
C674        C  0.27057584  0.23534610  0.03365701     0.36700
C675        C  0.22447459  0.22067311  0.06209780     0.06300
F676        F  0.21167167  0.25277078  0.03731604    -0.19500
H677        H  0.23745601  0.26739158  0.01325061     0.16100
F678        F  0.28982037  0.22966228  0.03301926    -0.23200
H679        H  0.26401255  0.21518796  0.05713319     0.17900
C680        C  0.22482417  0.19987282  0.06226471     0.25900
C681        C  0.21265880  0.18932052  0.07513904    -0.11800
C682        C  0.19954182  0.19916443  0.08786858    -0.25800
C683        C  0.19872860  0.21995895  0.08742236     0.36800
C684        C  0.21120657  0.23059266  0.07472430    -0.27400
F685        F  0.23669550  0.18966224  0.04968566    -0.19600
H686        H  0.21339182  0.17333201  0.07503494     0.16100
F687        F  0.18651941  0.23002841  0.09979396    -0.23300
H688        H  0.21077387  0.24658186  0.07504340     0.18000
C689        C  0.21311330  0.61185276  0.29974715    -0.27300
C690        C  0.21312563  0.60820260  0.27931249     0.06300
C691        C  0.20153145  0.62022617  0.26692012     0.25900
C692        C  0.19032480  0.63567383  0.27489912    -0.11800
C693        C  0.19059497  0.63954619  0.29532439    -0.25700
C694        C  0.20208942  0.62739256  0.30771195     0.36700
C695        C  0.22525642  0.59184995  0.27113087     0.06300
F696        F  0.20146016  0.61742444  0.24704017    -0.19500
H697        H  0.18171135  0.64483770  0.26501182     0.16100
F698        F  0.20241931  0.63019698  0.32758829    -0.23200
H699        H  0.22156180  0.60252578  0.30962108     0.17900
C700        C  0.24517287  0.58953705  0.27672473     0.25900
C701        C  0.25641249  0.57392960  0.26913537    -0.11800
C702        C  0.24811074  0.56046269  0.25566330    -0.25800
C703        C  0.22816603  0.56278729  0.25006727     0.36800
C704        C  0.21688385  0.57827450  0.25782853    -0.27400
F705        F  0.25394306  0.60267317  0.28913176    -0.19600
H706        H  0.27175173  0.57261408  0.27352785     0.16100
F707        F  0.21939820  0.54991491  0.23738208    -0.23300
H708        H  0.20149403  0.57953038  0.25359891     0.18000
C709        C  0.21144307  0.70376170  0.41554738    -0.27300
C710        C  0.19954827  0.71469782  0.40247419     0.06300
C711        C  0.19507969  0.73448442  0.40708603     0.25900
C712        C  0.20287139  0.74322336  0.42408826    -0.11800
C713        C  0.21552487  0.73257049  0.43663969    -0.25700
C714        C  0.21956701  0.71262863  0.43235874     0.36700
C715        C  0.19264041  0.70565507  0.38370598     0.06300
F716        F  0.18406080  0.74573653  0.39466354    -0.19500
H717        H  0.19966864  0.75864645  0.42695717     0.16100
F718        F  0.23141246  0.70171211  0.44431790    -0.23200
H719        H  0.21469429  0.68837105  0.41258174     0.17900
C720        C  0.20582439  0.69491294  0.37171384     0.25900
C721        C  0.19931782  0.68638868  0.35409996    -0.11800
C722        C  0.17965226  0.68867762  0.34779581    -0.25800
C723        C  0.16652521  0.69980791  0.35955404     0.36800
C724        C  0.17295236  0.70798798  0.37744571    -0.27400
F725        F  0.22519381  0.69311903  0.37669227    -0.19600
H726        H  0.20986263  0.67826440  0.34519240     0.16100
F727        F  0.14741713  0.70252173  0.35402814    -0.23300
H728        H  0.16247005  0.71603367  0.38649140     0.18000
C729        C  0.07381128  0.20795385  0.16594363    -0.27300
C730        C  0.08858021  0.21771632  0.15500836     0.06300
C731        C  0.08892925  0.23857610  0.15521699     0.25900
C732        C  0.07509637  0.24923366  0.16626956    -0.11800
C733        C  0.06097580  0.23944702  0.17783678    -0.25700
C734        C  0.06033010  0.21866029  0.17749164     0.36700
C735        C  0.10436646  0.20635461  0.14452799     0.06300
F736        F  0.10324268  0.24877713  0.14555548    -0.19500
H737        H  0.07589023  0.26522108  0.16633776     0.16100
F738        F  0.04649169  0.20869102  0.18805951    -0.23200
H739        H  0.07276222  0.19199544  0.16569300     0.17900
C740        C  0.11387577  0.19023059  0.15366116     0.25900
C741        C  0.13079987  0.18187948  0.14518655    -0.11800
C742        C  0.13882130  0.18949926  0.12758704    -0.25800
C743        C  0.12847135  0.20461205  0.11770281     0.36800
C744        C  0.11132553  0.21270931  0.12599457    -0.27400
F745        F  0.10774067  0.18333548  0.17146448    -0.19600
H746        H  0.13820863  0.17008729  0.15305340     0.16100
F747        F  0.13508720  0.21195603  0.10025367    -0.23300
H748        H  0.10383762  0.22447137  0.11816428     0.18000
C749        C  0.92254817  0.34518303  0.26170131    -0.27300
C750        C  0.93596202  0.33379598  0.27271672     0.06300
C751        C  0.93387938  0.33313216  0.29340208     0.25900
C752        C  0.91828399  0.34310054  0.30269587    -0.11800
C753        C  0.90458769  0.35420335  0.29164990    -0.25700
C754        C  0.90706427  0.35530776  0.27097633     0.36700
C755        C  0.95194625  0.32270841  0.26241167     0.06300
F756        F  0.94714023  0.32318486  0.30470203    -0.19500
H757        H  0.91701287  0.34218772  0.31862502     0.16100
F758        F  0.89424086  0.36563473  0.25953427    -0.23200
H759        H  0.92381937  0.34591967  0.24575862     0.17900
C760        C  0.95537849  0.30255234  0.26629332     0.25900
C761        C  0.97016029  0.29225106  0.25605705    -0.11800
C762        C  0.98159342  0.30170268  0.24150665    -0.25800
C763        C  0.97803535  0.32184644  0.23755371     0.36800
C764        C  0.96343524  0.33217449  0.24795659    -0.27400
F765        F  0.94392833  0.29257892  0.27939559    -0.19600
H766        H  0.97232745  0.27671639  0.25920572     0.16100
F767        F  0.98873345  0.33169594  0.22374115    -0.23300
H768        H  0.96110430  0.34766934  0.24471543     0.18000
C769        C  0.83641815  0.41776682  0.26158336    -0.27300
C770        C  0.82357132  0.42960542  0.27286408     0.06300
C771        C  0.82367421  0.42769012  0.29355139     0.25900
C772        C  0.83619370  0.41405448  0.30267417    -0.11800
C773        C  0.84898628  0.40206260  0.29143881    -0.25700
C774        C  0.84908224  0.40419123  0.27072027     0.36700
C775        C  0.81028849  0.44408403  0.26308734     0.06300
F776        F  0.81195180  0.43929345  0.30502107    -0.19500
H777        H  0.83587560  0.41294558  0.31863389     0.16100
F778        F  0.86091761  0.39280866  0.25917695    -0.23200
H779        H  0.83644624  0.41883293  0.24561887     0.17900
C780        C  0.81770588  0.45746671  0.24903591     0.25900
C781        C  0.80526921  0.47160622  0.24054118    -0.11800
C782        C  0.78526771  0.47283098  0.24601404    -0.25800
C783        C  0.77771249  0.45917359  0.25975122     0.36800
C784        C  0.79012763  0.44490856  0.26812168    -0.27400
F785        F  0.83715188  0.45738521  0.24405692    -0.19600
H786        H  0.81143094  0.48196262  0.23002990     0.16100
F787        F  0.75828210  0.45934542  0.26482187    -0.23300
H788        H  0.78398520  0.43447095  0.27856435     0.18000
C789        C  0.83520634  0.31114467  0.40229340    -0.27300
C790        C  0.83561788  0.33188627  0.40140618     0.06300
C791        C  0.82679367  0.34285136  0.41679018     0.25900
C792        C  0.81772156  0.33317443  0.43264541    -0.11800
C793        C  0.81763769  0.31246989  0.43361699    -0.25700
C794        C  0.82643630  0.30149723  0.41828597     0.36700
C795        C  0.84441961  0.34184638  0.38395623     0.06300
F796        F  0.82728915  0.36290945  0.41671122    -0.19500
H797        H  0.81111904  0.34185548  0.44438252     0.16100
F798        F  0.82596938  0.28143004  0.41842938    -0.23200
H799        H  0.84137763  0.30237168  0.39039479     0.17900
C800        C  0.86291594  0.33602487  0.37637105     0.25900
C801        C  0.87022290  0.34448010  0.35897559    -0.11800
C802        C  0.85929984  0.35895727  0.34880682    -0.25800
C803        C  0.84109857  0.36527381  0.35690766     0.36800
C804        C  0.83377966  0.35668898  0.37416911    -0.27400
F805        F  0.87393914  0.32214025  0.38576023    -0.19600
H806        H  0.88433534  0.33943905  0.35333365     0.16100
F807        F  0.82989997  0.37928579  0.34792980    -0.23300
H808        H  0.81940402  0.36125283  0.37955081     0.18000
C809        C  0.91278117  0.20631795  0.17295615    -0.27300
C810        C  0.92393047  0.21785622  0.15982115     0.06300
C811        C  0.91697322  0.22083210  0.14049347     0.25900
C812        C  0.89922063  0.21222230  0.13442749    -0.11800
C813        C  0.88810391  0.20047616  0.14748930    -0.25700
C814        C  0.89496134  0.19777669  0.16694342     0.36700
C815        C  0.94267684  0.22681293  0.16657775     0.06300
F816        F  0.92756483  0.23164669  0.12733349    -0.19500
H817        H  0.89434583  0.21452021  0.11935646     0.16100
F818        F  0.88428162  0.18732026  0.18031513    -0.23200
H819        H  0.91778275  0.20415496  0.18800786     0.17900
C820        C  0.94575330  0.24730911  0.16524707     0.25900
C821        C  0.96297412  0.25574163  0.17292129    -0.11800
C822        C  0.97723464  0.24394204  0.18230146    -0.25800
C823        C  0.97440817  0.22335138  0.18314873     0.36800
C824        C  0.95724472  0.21490206  0.17532271    -0.27400
F825        F  0.93166167  0.25930018  0.15748471    -0.19600
H826        H  0.96475881  0.27163149  0.17229107     0.16100
F827        F  0.98820296  0.21140242  0.19149506    -0.23300
H828        H  0.95518930  0.19905700  0.17627643     0.18000
C829        C  0.08636207  0.32798650  0.24674204    -0.27300
C830        C  0.09622131  0.31796798  0.26203183     0.06300
C831        C  0.09092118  0.29830596  0.26612496     0.25900
C832        C  0.07603489  0.28892972  0.25522251    -0.11800
C833        C  0.06605571  0.29888422  0.23994134    -0.25700
C834        C  0.07140344  0.31862222  0.23580784     0.36700
C835        C  0.11177281  0.32809339  0.27389137     0.06300
F836        F  0.10043502  0.28798525  0.28044773    -0.19500
H837        H  0.07240392  0.27375697  0.25872276     0.16100
F838        F  0.06195892  0.32907160  0.22152478    -0.23200
H839        H  0.09003970  0.34320759  0.24348357     0.17900
C840        C  0.12803005  0.33726644  0.26472623     0.25900
C841        C  0.14260844  0.34663567  0.27613376    -0.11800
C842        C  0.14142519  0.34680212  0.29690268    -0.25800
C843        C  0.12514181  0.33759082  0.30604295     0.36800
C844        C  0.11047957  0.32843485  0.29462352    -0.27400
F845        F  0.13015744  0.33659726  0.24478007    -0.19600
H846        H  0.15507060  0.35339993  0.26872120     0.16100
F847        F  0.12311044  0.33780071  0.32600875    -0.23300
H848        H  0.09798937  0.32167482  0.30199314     0.18000
C849        C  0.18602354  0.32180166  0.38002998    -0.27300
C850        C  0.19589022  0.33379169  0.39388085     0.06300
C851        C  0.19816117  0.35406292  0.38968166     0.25900
C852        C  0.19148646  0.36183616  0.37169592    -0.11800
C853        C  0.18204458  0.34971620  0.35765400    -0.25700
C854        C  0.17902222  0.32964009  0.36221614     0.36700
C855        C  0.20503173  0.32471616  0.41178607     0.06300
F856        F  0.20683717  0.36640321  0.40294702    -0.19500
H857        H  0.19377939  0.37738624  0.36872786     0.16100
F858        F  0.17023239  0.31726824  0.34906822    -0.23200
H859        H  0.18438148  0.30611226  0.38262274     0.17900
C860        C  0.19493918  0.31041886  0.42306050     0.25900
C861        C  0.20453411  0.30061365  0.43857353    -0.11800
C862        C  0.22430639  0.30498173  0.44339390    -0.25800
C863        C  0.23413141  0.31982392  0.43257756     0.36800
C864        C  0.22462890  0.32939560  0.41691489    -0.27400
F865        F  0.17576141  0.30593755  0.41915708    -0.19600
H866        H  0.19645444  0.28951684  0.44677405     0.16100
F867        F  0.25316629  0.32474387  0.43663469    -0.23300
H868        H  0.23291091  0.34005114  0.40834989     0.18000
C869        C  0.23292747  0.44386892  0.25835556    -0.27300
C870        C  0.22758024  0.44526605  0.27838160     0.06300
C871        C  0.23423111  0.46164904  0.28948538     0.25900
C872        C  0.24575962  0.47634413  0.28055223    -0.11800
C873        C  0.25046446  0.47511875  0.26039265    -0.25700
C874        C  0.24407960  0.45869686  0.24938938     0.36700
C875        C  0.21538569  0.42939005  0.28746392     0.06300
F876        F  0.22910542  0.46379071  0.30877355    -0.19500
H877        H  0.25052638  0.48894529  0.28921787     0.16100
F878        F  0.24905241  0.45675116  0.23002925    -0.23200
H879        H  0.22859393  0.43116471  0.24963093     0.17900
C880        C  0.19866371  0.42176358  0.27765475     0.25900
C881        C  0.18790330  0.40613285  0.28585022    -0.11800
C882        C  0.19344167  0.39776663  0.30406238    -0.25800
C883        C  0.21004396  0.40566462  0.31400210     0.36800
C884        C  0.22085660  0.42120524  0.30571203    -0.27400
F885        F  0.19254334  0.42955533  0.26020845    -0.19600
H886        H  0.17518987  0.40059807  0.27785482     0.16100
F887        F  0.21621512  0.39822274  0.33156893    -0.23300
H888        H  0.23384636  0.42653324  0.31339876     0.18000
C889        C  0.20538585  0.30834594  0.55823528    -0.27300
C890        C  0.21144973  0.32788622  0.56190704     0.06300
C891        C  0.22488525  0.33683165  0.54876590     0.25900
C892        C  0.23236469  0.32623069  0.53266547    -0.11800
C893        C  0.22639815  0.30664516  0.52912736    -0.25700
C894        C  0.21253200  0.29789462  0.54192144     0.36700
C895        C  0.20422884  0.33843436  0.57981141     0.06300
F896        F  0.23071246  0.35586252  0.55134736    -0.19500
H897        H  0.24289670  0.33337718  0.52296685     0.16100
F898        F  0.20643045  0.27896468  0.53921015    -0.23200
H899        H  0.19546414  0.30089065  0.56832089     0.17900
C900        C  0.18429550  0.33712257  0.58569356     0.25900
C901        C  0.17801134  0.34587875  0.60331375    -0.11800
C902        C  0.19129447  0.35649442  0.61525643    -0.25800
C903        C  0.21108364  0.35838487  0.60907861     0.36800
C904        C  0.21748050  0.34922124  0.59167707    -0.27400
F905        F  0.17078342  0.32754008  0.57434064    -0.19600
H906        H  0.16263909  0.34443583  0.60755724     0.16100
F907        F  0.22449290  0.36836028  0.62019689    -0.23300
H908        H  0.23297975  0.35013193  0.58779041     0.18000
C909        C  0.22635526  0.42733074  0.67140936    -0.27300
C910        C  0.21709726  0.43858675  0.68624267     0.06300
C911        C  0.19757212  0.43369928  0.69168735     0.25900
C912        C  0.18811723  0.41728437  0.68328637    -0.11800
C913        C  0.19755256  0.40580098  0.66873099    -0.25700
C914        C  0.21668938  0.41134912  0.66254437     0.36700
C915        C  0.22810763  0.45509961  0.69593897     0.06300
F916        F  0.18734457  0.44507681  0.70469314    -0.19500
H917        H  0.17320916  0.41378158  0.68795828     0.16100
F918        F  0.22638260  0.40115327  0.64821939    -0.23200
H919        H  0.24132761  0.43068652  0.66683619     0.17900
C920        C  0.22760310  0.45781690  0.71660200     0.25900
C921        C  0.23867974  0.47283850  0.72550260    -0.11800
C922        C  0.25099210  0.48512559  0.71418604    -0.25800
C923        C  0.25165995  0.48239102  0.69356727     0.36800
C924        C  0.24018778  0.46767543  0.68458477    -0.27400
F925        F  0.21724187  0.44536930  0.72841355    -0.19600
H926        H  0.23812267  0.47440416  0.74142873     0.16100
F927        F  0.26323955  0.49401376  0.68202644    -0.23300
H928        H  0.24082902  0.46606726  0.66867016     0.18000
C929        C  0.33677670  0.21188854  0.56996097    -0.27300
C930        C  0.31643533  0.20820453  0.56783576     0.06300
C931        C  0.30772628  0.19306579  0.57912626     0.25900
C932        C  0.31912630  0.18211795  0.59239290    -0.11800
C933        C  0.33935619  0.18618359  0.59492026    -0.25700
C934        C  0.34810891  0.20119774  0.58348801     0.36700
C935        C  0.30443456  0.22029202  0.55399225     0.06300
F936        F  0.28805034  0.18926895  0.57790129    -0.19500
H937        H  0.31193628  0.17078336  0.60108324     0.16100
F938        F  0.36764377  0.20551161  0.58518640    -0.23200
H939        H  0.34396808  0.22307402  0.56109041     0.17900
C940        C  0.30659522  0.24099182  0.55326983     0.25900
C941        C  0.29541590  0.25217060  0.53999641    -0.11800
C942        C  0.28161037  0.24303097  0.52746927    -0.25800
C943        C  0.27926245  0.22238350  0.52831995     0.36800
C944        C  0.29072895  0.21115717  0.54130615    -0.27400
F945        F  0.31922209  0.25051300  0.56564917    -0.19600
H946        H  0.29742512  0.26804096  0.53964929     0.16100
F947        F  0.26644164  0.21292182  0.51609435    -0.23300
H948        H  0.28910012  0.19524568  0.54119682     0.18000
C949        C  0.42613958  0.18048770  0.65992300    -0.27300
C950        C  0.42979142  0.20065310  0.65670002     0.06300
C951        C  0.41663377  0.21155948  0.64491431     0.25900
C952        C  0.40011199  0.20241501  0.63659106    -0.11800
C953        C  0.39625607  0.18226161  0.63996158    -0.25700
C954        C  0.40953568  0.17132876  0.65170510     0.36700
C955        C  0.44741461  0.21014067  0.66554280     0.06300
F956        F  0.41941853  0.23119981  0.64189943    -0.19500
H957        H  0.39012831  0.21128616  0.62779224     0.16100
F958        F  0.40672095  0.15175919  0.65508430    -0.23200
H959        H  0.43628221  0.17176348  0.66869238     0.17900
C960        C  0.45165489  0.20792583  0.68576347     0.25900
C961        C  0.46852368  0.21664905  0.69387399    -0.11800
C962        C  0.48127762  0.22799778  0.68206330    -0.25800
C963        C  0.47692442  0.23036972  0.66186019     0.36800
C964        C  0.46021100  0.22137852  0.65369305    -0.27400
F965        F  0.43916474  0.19785258  0.69780652    -0.19600
H966        H  0.47131247  0.21496795  0.70954037     0.16100
F967        F  0.48891635  0.24114300  0.64992557    -0.23300
H968        H  0.45732804  0.22307471  0.63804758     0.18000
C969        C  0.22344881  0.12541581  0.14513080    -0.27300
C970        C  0.21157504  0.11071031  0.15367336     0.06300
C971        C  0.19091029  0.11184113  0.15136268     0.25900
C972        C  0.18237440  0.12768571  0.14118090    -0.11800
C973        C  0.19425688  0.14253495  0.13283465    -0.25700
C974        C  0.21497139  0.14105940  0.13467011     0.36700
C975        C  0.22082905  0.09460035  0.16536611     0.06300
F976        F  0.17897013  0.09751312  0.15874819    -0.19500
H977        H  0.16643310  0.12831734  0.13980107     0.16100
F978        F  0.22709574  0.15512474  0.12708940    -0.23200
H979        H  0.23935156  0.12506034  0.14694878     0.17900
C980        C  0.23731662  0.08416527  0.15810544     0.25900
C981        C  0.24603380  0.06921688  0.16939053    -0.11800
C982        C  0.23846533  0.06426078  0.18809192    -0.25800
C983        C  0.22205121  0.07484806  0.19542532     0.36800
C984        C  0.21342361  0.08986344  0.18416843    -0.27400
F985        F  0.24473324  0.08806758  0.13987867    -0.19600
H986        H  0.25857372  0.06132098  0.16331963     0.16100
F987        F  0.21443869  0.07095960  0.21357991    -0.23300
H988        H  0.20104795  0.09798728  0.19028194     0.18000
C989        C  0.30455124  0.92609439  0.30663877    -0.27300
C990        C  0.31174468  0.92931823  0.28739848     0.06300
C991        C  0.32701534  0.91717549  0.28018954     0.25900
C992        C  0.33489301  0.90220617  0.29200241    -0.11800
C993        C  0.32758935  0.89881110  0.31116116    -0.25700
C994        C  0.31229500  0.91094546  0.31841125     0.36700
C995        C  0.30329694  0.94530014  0.27493444     0.06300
F996        F  0.33396065  0.91938354  0.26149401    -0.19500
H997        H  0.34652683  0.89300263  0.28596057     0.16100
F998        F  0.30514972  0.90854405  0.33700831    -0.23200
H999        H  0.29303859  0.93546862  0.31264453     0.17900
C1000       C  0.28271354  0.94737309  0.27277281     0.25900
C1001       C  0.27490995  0.96258552  0.26118781    -0.11800
C1002       C  0.28741628  0.97591484  0.25132159    -0.25800
C1003       C  0.30802663  0.97371897  0.25328254     0.36800
C1004       C  0.31583182  0.95862232  0.26507562    -0.27400
F1005       F  0.27012185  0.93442572  0.28150171    -0.19600
H1006       H  0.25900641  0.96381020  0.25976601     0.16100
F1007       F  0.32064130  0.98650225  0.24435271    -0.23300
H1008       H  0.33171870  0.95751001  0.26673748     0.18000
C1009       C  0.44958869  0.81734304  0.31418774    -0.27300
C1010       C  0.43819155  0.83126017  0.30385534     0.06300
C1011       C  0.44394078  0.83681364  0.28468083     0.25900
C1012       C  0.46038624  0.82808847  0.27580864    -0.11800
C1013       C  0.47134580  0.81354713  0.28577388    -0.25700
C1014       C  0.46601080  0.80849609  0.30526267     0.36700
C1015       C  0.41972653  0.83915415  0.31254926     0.06300
F1016       F  0.43306172  0.84991843  0.27407877    -0.19500
H1017       H  0.46408480  0.83223585  0.26080995     0.16100
F1018       F  0.47649005  0.79492075  0.31566866    -0.23200
H1019       H  0.44559617  0.81312855  0.32909330     0.17900
C1020       C  0.40524798  0.82629083  0.32011293     0.25900
C1021       C  0.38705147  0.83372543  0.32646745    -0.11800
C1022       C  0.38287968  0.85400841  0.32505193    -0.25800
C1023       C  0.39756330  0.86692901  0.31806237     0.36800
C1024       C  0.41587997  0.85954379  0.31204566    -0.27400
F1025       F  0.40823468  0.80644216  0.32031141    -0.19600
H1026       H  0.37590022  0.82350154  0.33167721     0.16100
F1027       F  0.39422123  0.88668614  0.31702280    -0.23300
H1028       H  0.42695737  0.86972240  0.30660588     0.18000
C1029       C  0.29210636  0.83282519  0.37567433    -0.27300
C1030       C  0.30163856  0.82769216  0.39339962     0.06300
C1031       C  0.32143319  0.83333490  0.39632085     0.25900
C1032       C  0.33158417  0.84354369  0.38156988    -0.11800
C1033       C  0.32209824  0.84859904  0.36383546    -0.25700
C1034       C  0.30221232  0.84329131  0.36100151     0.36700
C1035       C  0.29109597  0.81602218  0.40856620     0.06300
F1036       F  0.33087509  0.82919015  0.41353913    -0.19500
H1037       H  0.34687622  0.84762244  0.38403915     0.16100
F1038       F  0.29286320  0.84739291  0.34372929    -0.23200
H1039       H  0.27696275  0.82834272  0.37303148     0.17900
C1040       C  0.27248850  0.82198783  0.41561862     0.25900
C1041       C  0.26277291  0.81084534  0.43001921    -0.11800
C1042       C  0.27139338  0.79352091  0.43762398    -0.25800
C1043       C  0.29005876  0.78756562  0.43046373     0.36800
C1044       C  0.29972453  0.79872844  0.41606951    -0.27400
F1045       F  0.26391478  0.83884496  0.40893254    -0.19600
H1046       H  0.24850567  0.81587512  0.43526558     0.16100
F1047       F  0.29908812  0.77101313  0.43731727    -0.23300
H1048       H  0.31396120  0.79377476  0.41065238     0.18000
C1049       C  0.20711247  0.96619422  0.17047914    -0.27300
C1050       C  0.21810491  0.95086106  0.16188536     0.06300
C1051       C  0.23885732  0.95110929  0.16325721     0.25900
C1052       C  0.24835231  0.96607183  0.17391028    -0.11800
C1053       C  0.23724305  0.98081589  0.18341465    -0.25700
C1054       C  0.21656755  0.98109258  0.18114788     0.36700
C1055       C  0.20777079  0.93410667  0.15251050     0.06300
F1056       F  0.24983172  0.93631562  0.15524555    -0.19500
H1057       H  0.26428648  0.96563698  0.17546985     0.16100
F1058       F  0.20549120  0.99572936  0.18931013    -0.23200
H1059       H  0.19114830  0.96640682  0.16920073     0.17900
C1060       C  0.19383151  0.92308562  0.16325437     0.25900
C1061       C  0.18483835  0.90658441  0.15470380    -0.11800
C1062       C  0.18967679  0.90075495  0.13535434    -0.25800
C1063       C  0.20321865  0.91220555  0.12442269     0.36800
C1064       C  0.21219277  0.92870683  0.13300210    -0.27400
F1065       F  0.18957686  0.92777433  0.18231617    -0.19600
H1066       H  0.17460366  0.89797985  0.16348993     0.16100
F1067       F  0.20779388  0.90752324  0.10544129    -0.23300
H1068       H  0.22269453  0.93723979  0.12445865     0.18000
C1069       C  0.30687791  0.09130866  0.25826267    -0.27300
C1070       C  0.30215201  0.09201928  0.27844305     0.06300
C1071       C  0.29004975  0.07733215  0.28663795     0.25900
C1072       C  0.28268205  0.06216222  0.27471099    -0.11800
C1073       C  0.28743903  0.06135835  0.25450573    -0.25700
C1074       C  0.29960323  0.07610387  0.24632809     0.36700
C1075       C  0.31057257  0.10770291  0.29098643     0.06300
F1076       F  0.28583028  0.07738681  0.30625642    -0.19500
H1077       H  0.27340913  0.05091649  0.28131238     0.16100
F1078       F  0.30396687  0.07618683  0.22673158    -0.23200
H1079       H  0.31615186  0.10261860  0.25176431     0.17900
C1080       C  0.33112578  0.10924536  0.29310186     0.25900
C1081       C  0.33923192  0.12425749  0.30465496    -0.11800
C1082       C  0.32699553  0.13796410  0.31438229    -0.25800
C1083       C  0.30632010  0.13628009  0.31244875     0.36800
C1084       C  0.29820145  0.12119610  0.30079699    -0.27400
F1085       F  0.34333846  0.09599578  0.28422553    -0.19600
H1086       H  0.35515993  0.12507075  0.30610317     0.16100
F1087       F  0.29401994  0.14952684  0.32120166    -0.23300
H1088       H  0.28229754  0.12019656  0.29916820     0.18000
C1089       C  0.41252870  0.18148997  0.30446874    -0.27300
C1090       C  0.41899532  0.19985792  0.31179741     0.06300
C1091       C  0.40724325  0.20974590  0.32585262     0.25900
C1092       C  0.38953751  0.20135680  0.33239638    -0.11800
C1093       C  0.38288161  0.18317284  0.32478769    -0.25700
C1094       C  0.39464079  0.17326748  0.31071530     0.36700
C1095       C  0.43731089  0.20896621  0.30371123     0.06300
F1096       F  0.41227772  0.22797664  0.33256435    -0.19500
H1097       H  0.38072090  0.20948466  0.34302394     0.16100
F1098       F  0.38896800  0.15564422  0.30292983    -0.23200
H1099       H  0.42131844  0.17350223  0.29370920     0.17900
C1100       C  0.45159181  0.21795605  0.31599914     0.25900
C1101       C  0.46856113  0.22658240  0.30777014    -0.11800
C1102       C  0.47186664  0.22578044  0.28729561    -0.25800
C1103       C  0.45770005  0.21664434  0.27509639     0.36800
C1104       C  0.44059417  0.20853033  0.28321861    -0.27400
F1105       F  0.44956747  0.21775700  0.33596075    -0.19600
H1106       H  0.47939621  0.23335244  0.31743255     0.16100
F1107       F  0.46014338  0.21594718  0.25517970    -0.23300
H1108       H  0.42978009  0.20198120  0.27338005     0.18000
C1109       C  0.28466470  0.20869739  0.42982120    -0.27300
C1110       C  0.30087857  0.21618412  0.41930304     0.06300
C1111       C  0.30737897  0.23556508  0.42311912     0.25900
C1112       C  0.29741931  0.24736589  0.43683806    -0.11800
C1113       C  0.28074650  0.24013821  0.44690613    -0.25700
C1114       C  0.27470945  0.22046745  0.44357349     0.36700
C1115       C  0.30994929  0.20426196  0.40336935     0.06300
F1116       F  0.32274446  0.24345394  0.41290490    -0.19500
H1117       H  0.30249694  0.26236342  0.43919818     0.16100
F1118       F  0.25924398  0.21251422  0.45357897    -0.23200
H1119       H  0.27959402  0.19373185  0.42721991     0.17900
C1120       C  0.33052540  0.20163264  0.40231019     0.25900
C1121       C  0.33889250  0.19198803  0.38608910    -0.11800
C1122       C  0.32690953  0.18453622  0.37080854    -0.25800
C1123       C  0.30624559  0.18631434  0.37236062     0.36800
C1124       C  0.29789572  0.19616516  0.38850271    -0.27400
F1125       F  0.34252703  0.20838908  0.41692829    -0.19600
H1126       H  0.35482621  0.19046086  0.38541270     0.16100
F1127       F  0.29416002  0.17950696  0.35784641    -0.23300
H1128       H  0.28199973  0.19808421  0.38905535     0.18000
C1129       C  0.62461422  0.20758697  0.32953605    -0.27300
C1130       C  0.60988303  0.19424364  0.32343360     0.06300
C1131       C  0.61396861  0.17381184  0.32423733     0.25900
C1132       C  0.63269476  0.16708582  0.32995990    -0.11800
C1133       C  0.64748330  0.18051153  0.33561971    -0.25700
C1134       C  0.64307707  0.20084666  0.33585118     0.36700
C1135       C  0.59119615  0.20187273  0.31458530     0.06300
F1136       F  0.59988735  0.16031264  0.31949766    -0.19500
H1137       H  0.63561227  0.15134681  0.33005511     0.16100
F1138       F  0.65692346  0.21436895  0.34119429    -0.23200
H1139       H  0.62217595  0.22337129  0.32868904     0.17900
C1140       C  0.58145194  0.21856509  0.32241854     0.25900
C1141       C  0.56562283  0.22715662  0.31223586    -0.11800
C1142       C  0.55891992  0.21914256  0.29422524    -0.25800
C1143       C  0.56786448  0.20173776  0.28708511     0.36800
C1144       C  0.58393544  0.19342753  0.29702519    -0.27400
F1145       F  0.58733138  0.22675562  0.33979406    -0.19600
H1146       H  0.55888082  0.24036146  0.31829947     0.16100
F1147       F  0.56171848  0.19311539  0.27002728    -0.23300
H1148       H  0.59124598  0.18082143  0.29040401     0.18000
C1149       C  0.72094633  0.22119567  0.38398887    -0.27300
C1150       C  0.73079597  0.21213523  0.39986994     0.06300
C1151       C  0.72962987  0.19142832  0.40192688     0.25900
C1152       C  0.71914546  0.18012355  0.38809725    -0.11800
C1153       C  0.70911313  0.18933188  0.37249014    -0.25700
C1154       C  0.71004628  0.20996394  0.37054118     0.36700
C1155       C  0.74183362  0.22458259  0.41423801     0.06300
F1156       F  0.73787997  0.18219469  0.41769981    -0.19500
H1157       H  0.71828377  0.16424681  0.38994810     0.16100
F1158       F  0.70073124  0.21923079  0.35537915    -0.23200
H1159       H  0.72173518  0.23704833  0.38194825     0.17900
C1160       C  0.76113353  0.21967670  0.42027146     0.25900
C1161       C  0.77140933  0.23193747  0.43339786    -0.11800
C1162       C  0.76282691  0.24948530  0.44057361    -0.25800
C1163       C  0.74356916  0.25448350  0.43431610     0.36800
C1164       C  0.73323508  0.24208682  0.42141550    -0.27400
F1165       F  0.77038630  0.20342885  0.41295665    -0.19600
H1166       H  0.78623670  0.22775652  0.43775902     0.16100
F1167       F  0.73460225  0.27132444  0.44058379    -0.23300
H1168       H  0.71838991  0.24619813  0.41702127     0.18000
C1169       C  0.34586872  0.62654482  0.19288013    -0.27300
C1170       C  0.33825305  0.61218314  0.17997918     0.06300
C1171       C  0.33812105  0.61590200  0.15954314     0.25900
C1172       C  0.34538833  0.63376236  0.15220232    -0.11800
C1173       C  0.35302274  0.64818996  0.16508025    -0.25700
C1174       C  0.35321480  0.64438809  0.18556582     0.36700
C1175       C  0.32947148  0.59386239  0.18800220     0.06300
F1176       F  0.33119675  0.60213665  0.14665651    -0.19500
H1177       H  0.34524156  0.63619416  0.13638814     0.16100
F1178       F  0.35994537  0.65808456  0.19862771    -0.23200
H1179       H  0.34572005  0.62411089  0.20869703     0.17900
C1180       C  0.33985259  0.58195161  0.20150135     0.25900
C1181       C  0.33082573  0.56523555  0.20966234    -0.11800
C1182       C  0.31136013  0.56012876  0.20443477    -0.25800
C1183       C  0.30113179  0.57198127  0.19071067     0.36800
C1184       C  0.31013623  0.58865286  0.18264442    -0.27400
F1185       F  0.35871582  0.58643988  0.20671875    -0.19600
H1186       H  0.33900307  0.55637183  0.22017054     0.16100
F1187       F  0.28207165  0.56807534  0.18574762    -0.23300
H1188       H  0.30176700  0.59785448  0.17258213     0.18000
C1189       C  0.42639143  0.72634601  0.17229996    -0.27300
C1190       C  0.42644848  0.72554205  0.19303387     0.06300
C1191       C  0.41137646  0.71510051  0.20281520     0.25900
C1192       C  0.39702664  0.70497161  0.19195084    -0.11800
C1193       C  0.39716158  0.70550669  0.17120133    -0.25700
C1194       C  0.41183865  0.71653859  0.16143481     0.36700
C1195       C  0.44216657  0.73581597  0.20425851     0.06300
F1196       F  0.41024081  0.71508737  0.22285229    -0.19500
H1197       H  0.38562754  0.69691378  0.19978352     0.16100
F1198       F  0.41257156  0.71732958  0.14139682    -0.23200
H1199       H  0.43784338  0.73435020  0.16448911     0.17900
C1200       C  0.45295655  0.72600866  0.21906446     0.25900
C1201       C  0.46759507  0.73605010  0.22966610    -0.11800
C1202       C  0.47197267  0.75591958  0.22546677    -0.25800
C1203       C  0.46146102  0.76553350  0.21026785     0.36800
C1204       C  0.44668363  0.75555504  0.19987603    -0.27400
F1205       F  0.44972467  0.70658414  0.22290956    -0.19600
H1206       H  0.47568365  0.72817371  0.24100414     0.16100
F1207       F  0.46515490  0.78468378  0.20559513    -0.23300
H1208       H  0.43857846  0.76334784  0.18848532     0.18000
C1209       C  0.61351905  0.32165427  0.20015984    -0.27300
C1210       C  0.61275602  0.30098592  0.19899641     0.06300
C1211       C  0.62548572  0.29112259  0.18576501     0.25900
C1212       C  0.63842682  0.30190091  0.17367699    -0.11800
C1213       C  0.63902610  0.32265213  0.17473402    -0.25700
C1214       C  0.62648380  0.33239790  0.18829584     0.36700
C1215       C  0.59762085  0.29021322  0.21066342     0.06300
F1216       F  0.62554946  0.27108525  0.18467817    -0.19500
H1217       H  0.64806779  0.29401424  0.16361269     0.16100
F1218       F  0.62613561  0.35241661  0.18970572    -0.23200
H1219       H  0.60360240  0.32959902  0.20991223     0.17900
C1220       C  0.59484053  0.29421301  0.23091500     0.25900
C1221       C  0.57901467  0.28572370  0.24117520    -0.11800
C1222       C  0.56580045  0.27292307  0.23152514    -0.25800
C1223       C  0.56889315  0.26855184  0.21136571     0.36800
C1224       C  0.58461889  0.27716560  0.20109893    -0.27400
F1225       F  0.60744258  0.30633416  0.24079121    -0.19600
H1226       H  0.57713789  0.28912035  0.25670922     0.16100
F1227       F  0.55627907  0.25659693  0.20129919    -0.23300
H1228       H  0.58621495  0.27417857  0.18544938     0.18000
C1229       C  0.70256415  0.45467499  0.17216826    -0.27300
C1230       C  0.69459694  0.44042720  0.18499401     0.06300
C1231       C  0.69609533  0.44337751  0.20555821     0.25900
C1232       C  0.70618730  0.45978311  0.21298687    -0.11800
C1233       C  0.71535225  0.47318768  0.20010784    -0.25700
C1234       C  0.71301855  0.47082292  0.17960549     0.36700
C1235       C  0.68713821  0.42153469  0.17678264     0.06300
F1236       F  0.68924022  0.42969590  0.21850678    -0.19500
H1237       H  0.70784282  0.46134898  0.22884046     0.16100
F1238       F  0.72112054  0.48390664  0.16674480    -0.23200
H1239       H  0.70133164  0.45287888  0.15630159     0.17900
C1240       C  0.66966348  0.41267433  0.18373261     0.25900
C1241       C  0.66413007  0.39396655  0.17690806    -0.11800
C1242       C  0.67564823  0.38395833  0.16274677    -0.25800
C1243       C  0.69269285  0.39321288  0.15524794     0.36800
C1244       C  0.69837934  0.41170934  0.16232396    -0.27400
F1245       F  0.65782143  0.42213289  0.19691401    -0.19600
H1246       H  0.65073202  0.38735746  0.18265549     0.16100
F1247       F  0.70435843  0.38415560  0.14163840    -0.23300
H1248       H  0.71199621  0.41812260  0.15686420     0.18000
C1249       C  0.81168345  0.24103741  0.04135890    -0.27300
C1250       C  0.80504315  0.22303844  0.04919157     0.06300
C1251       C  0.78806982  0.21411381  0.04112985     0.25900
C1252       C  0.77726736  0.22368694  0.02640523    -0.11800
C1253       C  0.78336600  0.24216913  0.01920010    -0.25700
C1254       C  0.80115235  0.25042177  0.02633171     0.36700
C1255       C  0.81507035  0.21430279  0.06654585     0.06300
F1256       F  0.78187597  0.19615300  0.04756040    -0.19500
H1257       H  0.76399157  0.21669205  0.02082263     0.16100
F1258       F  0.80829109  0.26771847  0.01910719    -0.23200
H1259       H  0.82470844  0.24820386  0.04730015     0.17900
C1260       C  0.83581035  0.21280572  0.06745822     0.25900
C1261       C  0.84488504  0.20502361  0.08427101    -0.11800
C1262       C  0.83345879  0.19838076  0.10025762    -0.25800
C1263       C  0.81279058  0.19996412  0.09943146     0.36800
C1264       C  0.80372443  0.20801460  0.08277180    -0.27400
F1265       F  0.84728632  0.21849793  0.05201346    -0.19600
H1266       H  0.86085777  0.20389028  0.08468862     0.16100
F1267       F  0.80141289  0.19444459  0.11500638    -0.23300
H1268       H  0.78779599  0.20963474  0.08268387     0.18000
C1269       C  0.69290773  0.29761950  0.04533105    -0.27300
C1270       C  0.70307239  0.31121839  0.05734923     0.06300
C1271       C  0.72203073  0.31751675  0.05146465     0.25900
C1272       C  0.73050187  0.31037467  0.03400625    -0.11800
C1273       C  0.72056373  0.29643718  0.02219575    -0.25700
C1274       C  0.70153646  0.29020210  0.02799678     0.36700
C1275       C  0.69418807  0.31815989  0.07629516     0.06300
F1276       F  0.73289269  0.32977095  0.06308939    -0.19500
H1277       H  0.74528627  0.31518780  0.03018203     0.16100
F1278       F  0.69129208  0.27682271  0.01707582    -0.23200
H1279       H  0.67827490  0.29260058  0.04946425     0.17900
C1280       C  0.69442230  0.33828304  0.08153691     0.25900
C1281       C  0.68698791  0.34444301  0.09979950    -0.11800
C1282       C  0.67878721  0.33082661  0.11323405    -0.25800
C1283       C  0.67794935  0.31075066  0.10772554     0.36800
C1284       C  0.68563534  0.30454306  0.08947634    -0.27400
F1285       F  0.70147224  0.35213128  0.06885984    -0.19600
H1286       H  0.68755172  0.36005319  0.10331445     0.16100
F1287       F  0.67017657  0.29700726  0.12007192    -0.23300
H1288       H  0.68526803  0.28896218  0.08580805     0.18000
C1289       C  0.70117070  0.34713093  0.88045979    -0.27300
C1290       C  0.69416635  0.32833309  0.88579498     0.06300
C1291       C  0.67854975  0.31996770  0.87490053     0.25900
C1292       C  0.67070573  0.32992357  0.85858761    -0.11800
C1293       C  0.67833044  0.34835364  0.85264048    -0.25700
C1294       C  0.69347834  0.35703389  0.86406263     0.36700
C1295       C  0.70368362  0.31741192  0.90229805     0.06300
F1296       F  0.67146055  0.30175381  0.87940124    -0.19500
H1297       H  0.65900926  0.32283072  0.85026931     0.16100
F1298       F  0.70119096  0.37492954  0.85934047    -0.23200
H1299       H  0.71283185  0.35412197  0.88892150     0.17900
C1300       C  0.72443620  0.31630513  0.90360044     0.25900
C1301       C  0.73338376  0.30667073  0.91947325    -0.11800
C1302       C  0.72190938  0.29752503  0.93411367    -0.25800
C1303       C  0.70119488  0.29809505  0.93263288     0.36800
C1304       C  0.69217692  0.30814498  0.91693663    -0.27400
F1305       F  0.73611559  0.32419064  0.88931595    -0.19600
H1306       H  0.74937912  0.30609792  0.92018115     0.16100
F1307       F  0.68970870  0.28962161  0.94672014    -0.23300
H1308       H  0.67619937  0.30898092  0.91641591     0.18000
C1309       C  0.58337961  0.32031485  0.74414721    -0.27300
C1310       C  0.59423897  0.31178249  0.75960957     0.06300
C1311       C  0.59144118  0.29165795  0.76399073     0.25900
C1312       C  0.57790737  0.28037538  0.75314522    -0.11800
C1313       C  0.56694228  0.28890936  0.73769250    -0.25700
C1314       C  0.56986450  0.30905673  0.73327117     0.36700
C1315       C  0.60820799  0.32398979  0.77130651     0.06300
F1316       F  0.60202718  0.28282229  0.77856602    -0.19500
H1317       H  0.57605297  0.26492490  0.75683115     0.16100
F1318       F  0.55926955  0.31810888  0.71884425    -0.23200
H1319       H  0.58510031  0.33584302  0.74072871     0.17900
C1320       C  0.62286440  0.33541238  0.76197494     0.25900
C1321       C  0.63628057  0.34642093  0.77326857    -0.11800
C1322       C  0.63537854  0.34612142  0.79402314    -0.25800
C1323       C  0.62035794  0.33513808  0.80330488     0.36800
C1324       C  0.60692449  0.32421170  0.79202017    -0.27400
F1325       F  0.62466911  0.33535077  0.74198397    -0.19600
H1326       H  0.64775422  0.35469471  0.76579438     0.16100
F1327       F  0.61845960  0.33518066  0.82328583    -0.23300
H1328       H  0.59545201  0.31591648  0.79947020     0.18000
C1329       C  0.70986634  0.42464525  0.80127660    -0.27300
C1330       C  0.70015549  0.43563293  0.78657952     0.06300
C1331       C  0.68141531  0.42931972  0.78005157     0.25900
C1332       C  0.67294020  0.41210529  0.78764259    -0.11800
C1333       C  0.68274838  0.40093423  0.80213962    -0.25700
C1334       C  0.70126607  0.40755698  0.80909307     0.36700
C1335       C  0.71020399  0.45274392  0.77715408     0.06300
F1336       F  0.67118061  0.43984392  0.76638058    -0.19500
H1337       H  0.65858483  0.40758670  0.78219426     0.16100
F1338       F  0.71149248  0.39720793  0.82289307    -0.23200
H1339       H  0.72445346  0.42890845  0.80628695     0.17900
C1340       C  0.72049857  0.46695439  0.78841526     0.25900
C1341       C  0.73091840  0.48215849  0.77902137    -0.11800
C1342       C  0.73095518  0.48369532  0.75830274    -0.25800
C1343       C  0.72032101  0.46974637  0.74710624     0.36800
C1344       C  0.71027198  0.45437732  0.75645173    -0.27400
F1345       F  0.72035559  0.46629167  0.80847373    -0.19600
H1346       H  0.73889534  0.49278521  0.78795925     0.16100
F1347       F  0.72031088  0.47038100  0.72704646    -0.23300
H1348       H  0.70296662  0.44339452  0.74738613     0.18000
C1349       C  0.79945214  0.21023081  0.92782235    -0.27300
C1350       C  0.81169028  0.22043231  0.91455650     0.06300
C1351       C  0.81086265  0.24116923  0.91385037     0.25900
C1352       C  0.79791671  0.25150503  0.92620587    -0.11800
C1353       C  0.78544957  0.24132342  0.93928732    -0.25700
C1354       C  0.78648420  0.22055575  0.94018729     0.36700
C1355       C  0.82427992  0.20935522  0.90055170     0.06300
F1356       F  0.82205427  0.25137387  0.90070537    -0.19500
H1357       H  0.79740825  0.26747719  0.92532879     0.16100
F1358       F  0.77542193  0.21027689  0.95339754    -0.23200
H1359       H  0.79999444  0.19425069  0.92859959     0.17900
C1360       C  0.84473519  0.21280340  0.89936384     0.25900
C1361       C  0.85607110  0.20326140  0.88489993    -0.11800
C1362       C  0.84721798  0.19001693  0.87150189    -0.25800
C1363       C  0.82674056  0.18625920  0.87314181     0.36800
C1364       C  0.81549347  0.19582059  0.88756637    -0.27400
F1365       F  0.85373342  0.22529228  0.91226576    -0.19600
H1366       H  0.87178778  0.20625233  0.88419417     0.16100
F1367       F  0.81731028  0.17391872  0.86041254    -0.23300
H1368       H  0.79971797  0.19309180  0.88823088     0.18000
C1369       C  0.09915889  0.25133209  0.80042955    -0.27300
C1370       C  0.09967148  0.23061621  0.80175299     0.06300
C1371       C  0.08321274  0.21961119  0.79540494     0.25900
C1372       C  0.06723676  0.22906106  0.78644246    -0.11800
C1373       C  0.06717513  0.24964681  0.78413778    -0.25700
C1374       C  0.08297088  0.26084438  0.79173184     0.36700
C1375       C  0.11797838  0.22045854  0.80806321     0.06300
F1376       F  0.08280898  0.19965774  0.79747109    -0.19500
H1377       H  0.05500993  0.22025822  0.78098889     0.16100
F1378       F  0.08340073  0.28077955  0.78948696    -0.23200
H1379       H  0.11170653  0.26005073  0.80524086     0.17900
C1380       C  0.12661815  0.20607059  0.79579333     0.25900
C1381       C  0.14405324  0.19666545  0.80144066    -0.11800
C1382       C  0.15347548  0.20155303  0.81931362    -0.25800
C1383       C  0.14484880  0.21610315  0.83158922     0.36800
C1384       C  0.12727888  0.22547297  0.82591815    -0.27400
F1385       F  0.11855918  0.20157934  0.77795511    -0.19600
H1386       H  0.15036766  0.18577801  0.79152491     0.16100
F1387       F  0.15320627  0.22123763  0.84910622    -0.23300
H1388       H  0.12085477  0.23658832  0.83551628     0.18000
C1389       C  0.09454050  0.30417220  0.69835293    -0.27300
C1390       C  0.09760659  0.32445134  0.70162754     0.06300
C1391       C  0.08480177  0.33460961  0.71451401     0.25900
C1392       C  0.06968842  0.32449273  0.72438734    -0.11800
C1393       C  0.06679177  0.30411535  0.72138347    -0.25700
C1394       C  0.07932107  0.29407036  0.70806225     0.36700
C1395       C  0.11407412  0.33483770  0.69142576     0.06300
F1396       F  0.08659745  0.35441701  0.71720482    -0.19500
H1397       H  0.06011859  0.33268730  0.73428408     0.16100
F1398       F  0.07725764  0.27438153  0.70474483    -0.23200
H1399       H  0.10418866  0.29604811  0.68846806     0.17900
C1400       C  0.12771384  0.34648187  0.70201570     0.25900
C1401       C  0.14315262  0.35614374  0.69214944    -0.11800
C1402       C  0.14552963  0.35412111  0.67159207    -0.25800
C1403       C  0.13196738  0.34222648  0.66106830     0.36800
C1404       C  0.11644672  0.33277666  0.67091772    -0.27400
F1405       F  0.12653313  0.34796016  0.72199665    -0.19600
H1406       H  0.15352778  0.36485761  0.70069538     0.16100
F1407       F  0.13344357  0.33988977  0.64118370    -0.23300
H1408       H  0.10613144  0.32390082  0.66245510     0.18000
C1409       C  0.93185481  0.19316430  0.80318550    -0.27300
C1410       C  0.93914429  0.21012456  0.81273376     0.06300
C1411       C  0.93026324  0.21612748  0.83059629     0.25900
C1412       C  0.91390241  0.20591434  0.83811706    -0.11800
C1413       C  0.90613700  0.18934325  0.82816395    -0.25700
C1414       C  0.91574802  0.18274448  0.81084236     0.36700
C1415       C  0.95515034  0.22198427  0.80331770     0.06300
F1416       F  0.93735091  0.23190279  0.84080525    -0.19500
H1417       H  0.90714402  0.21122432  0.85162617     0.16100
F1418       F  0.90929854  0.16661070  0.80078124    -0.23200
H1419       H  0.93818660  0.18829109  0.78931617     0.17900
C1420       C  0.97163359  0.21276393  0.79448700     0.25900
C1421       C  0.98557751  0.22395862  0.78411803    -0.11800
C1422       C  0.98369627  0.24458443  0.78273444    -0.25800
C1423       C  0.96762898  0.25391698  0.79204958     0.36800
C1424       C  0.95340247  0.24268197  0.80202629    -0.27400
F1425       F  0.97440250  0.19294621  0.79600224    -0.19600
H1426       H  0.99800457  0.21650056  0.77729493     0.16100
F1427       F  0.96516720  0.27378469  0.79074291    -0.23300
H1428       H  0.94069071  0.25015763  0.80824704     0.18000
C1429       C  0.95678592  0.30083820  0.69330370    -0.27300
C1430       C  0.95344275  0.32114405  0.69619467     0.06300
C1431       C  0.96499901  0.33142633  0.71007246     0.25900
C1432       C  0.97930435  0.32151751  0.72112080    -0.11800
C1433       C  0.98254298  0.30115945  0.71852025    -0.25700
C1434       C  0.97122699  0.29087648  0.70433763     0.36700
C1435       C  0.93740015  0.33150236  0.68544260     0.06300
F1436       F  0.96259397  0.35116765  0.71280528    -0.19500
H1437       H  0.98796331  0.32988282  0.73168654     0.16100
F1438       F  0.97365896  0.27114942  0.70152939    -0.23200
H1439       H  0.94789077  0.29261152  0.68282539     0.17900
C1440       C  0.93607207  0.33086646  0.66471111     0.25900
C1441       C  0.92094470  0.34110390  0.65493800    -0.11800
C1442       C  0.90695578  0.35222422  0.66565250    -0.25800
C1443       C  0.90833810  0.35272619  0.68643654     0.36800
C1444       C  0.92335142  0.34242029  0.69613660    -0.27400
F1445       F  0.94967394  0.32078589  0.65390259    -0.19600
H1446       H  0.92029834  0.34048102  0.63895677     0.16100
F1447       F  0.89490241  0.36270727  0.69753360    -0.23300
H1448       H  0.92392705  0.34283972  0.71213152     0.18000
C1449       C  0.85776693  0.33129560  0.58449014    -0.27300
C1450       C  0.84666832  0.34371364  0.57208636     0.06300
C1451       C  0.84325553  0.36337473  0.57805665     0.25900
C1452       C  0.85081395  0.37031444  0.59605016    -0.11800
C1453       C  0.86199910  0.35787429  0.60840320    -0.25700
C1454       C  0.86543550  0.33825009  0.60237962     0.36700
C1455       C  0.83805168  0.33562421  0.55351324     0.06300
F1456       F  0.83281005  0.37596059  0.56643973    -0.19500
H1457       H  0.84794406  0.38548487  0.60029429     0.16100
F1458       F  0.87549177  0.32546289  0.61410600    -0.23200
H1459       H  0.86011095  0.31595943  0.58055791     0.17900
C1460       C  0.84941016  0.32372060  0.54072166     0.25900
C1461       C  0.84059290  0.31430794  0.52451839    -0.11800
C1462       C  0.82035048  0.31679714  0.52053614    -0.25800
C1463       C  0.80919292  0.32945122  0.53283052     0.36800
C1464       C  0.81796541  0.33862746  0.54917015    -0.27400
F1465       F  0.86904712  0.32107900  0.54395772    -0.19600
H1466       H  0.84958213  0.30486787  0.51521548     0.16100
F1467       F  0.78954073  0.33219642  0.52975735    -0.23300
H1468       H  0.80881036  0.34745894  0.55889607     0.18000
C1469       C  0.80691973  0.45949720  0.67998401    -0.27300
C1470       C  0.81877375  0.44789047  0.69244027     0.06300
C1471       C  0.81935274  0.45225153  0.71276310     0.25900
C1472       C  0.80834724  0.46806138  0.72038202    -0.11800
C1473       C  0.79640834  0.47964494  0.70791879    -0.25700
C1474       C  0.79576718  0.47513971  0.68758416     0.36700
C1475       C  0.83059632  0.43149122  0.68393096     0.06300
F1476       F  0.83014822  0.44092732  0.72531481    -0.19500
H1477       H  0.80892634  0.47104308  0.73609588     0.16100
F1478       F  0.78471825  0.48607505  0.67490271    -0.23200
H1479       H  0.80647711  0.45657660  0.66425001     0.17900
C1480       C  0.82170615  0.41754960  0.67132192     0.25900
C1481       C  0.83314056  0.40306132  0.66208432    -0.11800
C1482       C  0.85360724  0.40195391  0.66543199    -0.25800
C1483       C  0.86247174  0.41552191  0.67851182     0.36800
C1484       C  0.85102608  0.43022749  0.68759018    -0.27400
F1485       F  0.80189391  0.41781179  0.66807437    -0.19600
H1486       H  0.82591079  0.39254814  0.65240001     0.16100
F1487       F  0.88225292  0.41508576  0.68192498    -0.23300
H1488       H  0.85819811  0.44094733  0.69708320     0.18000
C1489       C  0.22211721  0.79573145  0.03776914    -0.27300
C1490       C  0.23049646  0.81099350  0.04908805     0.06300
C1491       C  0.25068873  0.81531249  0.04708105     0.25900
C1492       C  0.26211163  0.80507281  0.03337293    -0.11800
C1493       C  0.25369365  0.79019981  0.02155956    -0.25700
C1494       C  0.23360351  0.78533968  0.02408304     0.36700
C1495       C  0.21826655  0.82219424  0.06320911     0.06300
F1496       F  0.25944578  0.82926451  0.05857575    -0.19500
H1497       H  0.27761320  0.80885275  0.03198739     0.16100
F1498       F  0.22488454  0.77108786  0.01293465    -0.23200
H1499       H  0.20657662  0.79214464  0.03926895     0.17900
C1500       C  0.21817120  0.84298071  0.06304668     0.25900
C1501       C  0.20751238  0.85341362  0.07729261    -0.11800
C1502       C  0.19645321  0.84328032  0.09157850    -0.25800
C1503       C  0.19616603  0.82246690  0.09142233     0.36800
C1504       C  0.20703542  0.81205579  0.07733184    -0.27400
F1505       F  0.22813166  0.85317354  0.04893121    -0.19600
H1506       H  0.20765523  0.86941911  0.07697274     0.16100
F1507       F  0.18596085  0.81214850  0.10527004    -0.23300
H1508       H  0.20704493  0.79604984  0.07770718     0.18000
C1509       C  0.32701727  0.70966735  0.04166310    -0.27300
C1510       C  0.33343891  0.72191909  0.05722688     0.06300
C1511       C  0.33181643  0.74256560  0.05513262     0.25900
C1512       C  0.32383370  0.75063865  0.03794378    -0.11800
C1513       C  0.31679116  0.73837582  0.02274137    -0.25700
C1514       C  0.31846639  0.71778119  0.02468204     0.36700
C1515       C  0.34137952  0.71318656  0.07572547     0.06300
F1516       F  0.33705948  0.75497851  0.07003700    -0.19500
H1517       H  0.32236571  0.76654447  0.03689124     0.16100
F1518       F  0.31198826  0.70552848  0.01015127    -0.23200
H1519       H  0.32850748  0.69377628  0.04268955     0.17900
C1520       C  0.33186030  0.69716515  0.08495617     0.25900
C1521       C  0.33909041  0.68960742  0.10276113    -0.11800
C1522       C  0.35574067  0.69803911  0.11193853    -0.25800
C1523       C  0.36533153  0.71400391  0.10257878     0.36800
C1524       C  0.35832406  0.72126181  0.08460069    -0.27400
F1525       F  0.31509810  0.68927368  0.07722197    -0.19600
H1526       H  0.33128676  0.67744032  0.10959941     0.16100
F1527       F  0.38148711  0.72274293  0.11067950    -0.23300
H1528       H  0.36618456  0.73331286  0.07762262     0.18000
C1529       C  0.35855797  0.73066177  0.87046745    -0.27300
C1530       C  0.35455633  0.71920742  0.88731026     0.06300
C1531       C  0.36149439  0.69965153  0.88816808     0.25900
C1532       C  0.37150771  0.69146468  0.87210666    -0.11800
C1533       C  0.37502978  0.70269678  0.85505276    -0.25700
C1534       C  0.36880219  0.72251064  0.85443875     0.36700
C1535       C  0.34254677  0.72737595  0.90364963     0.06300
F1536       F  0.35847544  0.68842447  0.90450901    -0.19500
H1537       H  0.37624094  0.67619128  0.87284317     0.16100
F1538       F  0.37142401  0.73354998  0.83790567    -0.23200
H1539       H  0.35313862  0.74568310  0.86945537     0.17900
C1540       C  0.34743401  0.74552604  0.91245438     0.25900
C1541       C  0.33618772  0.75281109  0.92816594    -0.11800
C1542       C  0.31980781  0.74218692  0.93534764    -0.25800
C1543       C  0.31480750  0.72407441  0.92631456     0.36800
C1544       C  0.32609350  0.71682116  0.91061506    -0.27400
F1545       F  0.36336947  0.75598576  0.90619489    -0.19600
H1546       H  0.34037170  0.76680624  0.93471449     0.16100
F1547       F  0.29907000  0.71330038  0.93255636    -0.23300
H1548       H  0.32192454  0.70294060  0.90380094     0.18000
C1549       C  0.33120440  0.58184076  0.79953626    -0.27300
C1550       C  0.34160659  0.59562814  0.78795454     0.06300
C1551       C  0.34003680  0.59446288  0.76720459     0.25900
C1552       C  0.32877925  0.57965346  0.75835087    -0.11800
C1553       C  0.31823223  0.56607810  0.76987776    -0.25700
C1554       C  0.31929662  0.56742486  0.79061855     0.36700
C1555       C  0.35339883  0.61172439  0.79724313     0.06300
F1556       F  0.34873147  0.60811728  0.75537006    -0.19500
H1557       H  0.32784239  0.57918275  0.74237782     0.16100
F1558       F  0.30912008  0.55465761  0.80226905    -0.23200
H1559       H  0.33228749  0.58216939  0.81548990     0.17900
C1560       C  0.34596296  0.62271445  0.81330689     0.25900
C1561       C  0.35584548  0.63966803  0.81976627    -0.11800
C1562       C  0.37313750  0.64621163  0.81021534    -0.25800
C1563       C  0.38117674  0.63457431  0.79495409     0.36800
C1564       C  0.37158537  0.61734332  0.78886691    -0.27400
F1565       F  0.32853361  0.61790953  0.82201852    -0.19600
H1566       H  0.34935438  0.64818492  0.83167712     0.16100
F1567       F  0.39807018  0.63996661  0.78556731    -0.23300
H1568       H  0.37810085  0.60871465  0.77705646     0.18000
C1569       C  0.45813288  0.75577339  0.76039976    -0.27300
C1570       C  0.45238241  0.73663670  0.75473102     0.06300
C1571       C  0.45818254  0.72952191  0.73603819     0.25900
C1572       C  0.46989157  0.74118252  0.72360117    -0.11800
C1573       C  0.47614083  0.76014780  0.72950622    -0.25700
C1574       C  0.46990485  0.76740151  0.74804412     0.36700
C1575       C  0.44011455  0.72446088  0.76830839     0.06300
F1576       F  0.45318343  0.71101756  0.73005723    -0.19500
H1577       H  0.47449913  0.73509134  0.70952340     0.16100
F1578       F  0.47550290  0.78554410  0.75456050    -0.23200
H1579       H  0.45349231  0.76178244  0.77450261     0.17900
C1580       C  0.44477419  0.72303529  0.78857806     0.25900
C1581       C  0.43222544  0.71286365  0.80148552    -0.11800
C1582       C  0.41518813  0.70344541  0.79433898    -0.25800
C1583       C  0.41088193  0.70421442  0.77403504     0.36800
C1584       C  0.42312693  0.71480954  0.76120493    -0.27400
F1585       F  0.46157605  0.73126398  0.79587622    -0.19600
H1586       H  0.43591973  0.71214375  0.81704711     0.16100
F1587       F  0.39433522  0.69548329  0.76674500    -0.23300
H1588       H  0.41902202  0.71589959  0.74577892     0.18000
C1589       C  0.20169578  0.82593456  0.89479268    -0.27300
C1590       C  0.22219229  0.82877975  0.89606127     0.06300
C1591       C  0.23149271  0.84154684  0.88252225     0.25900
C1592       C  0.22041268  0.85084699  0.86771480    -0.11800
C1593       C  0.19997237  0.84739278  0.86602832    -0.25700
C1594       C  0.19066901  0.83507928  0.87999294     0.36700
C1595       C  0.23365915  0.81752341  0.91093749     0.06300
F1596       F  0.25138090  0.84427090  0.88296937    -0.19500
H1597       H  0.22796060  0.86017479  0.85713286     0.16100
F1598       F  0.17086882  0.83182638  0.87943657    -0.23200
H1599       H  0.19419786  0.81640932  0.90523990     0.17900
C1600       C  0.24722278  0.82694133  0.92355424     0.25900
C1601       C  0.25794648  0.81592590  0.93732685    -0.11800
C1602       C  0.25515781  0.79538302  0.93901227    -0.25800
C1603       C  0.24118628  0.78605560  0.92672412     0.36800
C1604       C  0.23067503  0.79704588  0.91277146    -0.27400
F1605       F  0.24972166  0.84684033  0.92297905    -0.19600
H1606       H  0.26830083  0.82356954  0.94686232     0.16100
F1607       F  0.23788141  0.76629957  0.92788122    -0.23300
H1608       H  0.22026887  0.78949411  0.90321471     0.18000
C1609       C  0.22654458  0.12397013  0.79811405    -0.27300
C1610       C  0.21291374  0.11463734  0.78557357     0.06300
C1611       C  0.19386413  0.12260964  0.78354162     0.25900
C1612       C  0.18855488  0.13957914  0.79411963    -0.11800
C1613       C  0.20213413  0.14892404  0.80691142    -0.25700
C1614       C  0.22133222  0.14098531  0.80860710     0.36700
C1615       C  0.21882680  0.09648689  0.77493934     0.06300
F1616       F  0.18023402  0.11367340  0.77179957    -0.19500
H1617       H  0.17365963  0.14522035  0.79246043     0.16100
F1618       F  0.23521986  0.14966817  0.82019583    -0.23200
H1619       H  0.24137186  0.11810101  0.79966496     0.17900
C1620       C  0.21822381  0.09550786  0.75418413     0.25900
C1621       C  0.22540913  0.07877039  0.74436392    -0.11800
C1622       C  0.23356349  0.06299867  0.75509815    -0.25800
C1623       C  0.23364139  0.06376237  0.77584387     0.36800
C1624       C  0.22628942  0.08038111  0.78565266    -0.27400
F1625       F  0.21170729  0.11112286  0.74341611    -0.19600
H1626       H  0.22540276  0.07848977  0.72835039     0.16100
F1627       F  0.24080370  0.04843132  0.78660796    -0.23300
H1628       H  0.22668443  0.08084146  0.80165610     0.18000
C1629       C  0.32291142  0.07032679  0.68284767    -0.27300
C1630       C  0.31357978  0.08380275  0.67015487     0.06300
C1631       C  0.29281466  0.08334382  0.66838983     0.25900
C1632       C  0.28168597  0.07000621  0.67956515    -0.11800
C1633       C  0.29101312  0.05714935  0.69288265    -0.25700
C1634       C  0.31179487  0.05724538  0.69423965     0.36700
C1635       C  0.32546554  0.09888874  0.65961604     0.06300
F1636       F  0.28318072  0.09633416  0.65652792    -0.19500
H1637       H  0.26573208  0.07014123  0.67823479     0.16100
F1638       F  0.32144947  0.04452803  0.70638668    -0.23200
H1639       H  0.33886955  0.07001990  0.68406531     0.17900
C1640       C  0.33983842  0.11004679  0.66976080     0.25900
C1641       C  0.34977908  0.12536910  0.66020111    -0.11800
C1642       C  0.34539036  0.13008503  0.64047875    -0.25800
C1643       C  0.33167273  0.11836964  0.63006372     0.36800
C1644       C  0.32192740  0.10285124  0.63955395    -0.27400
F1645       F  0.34349867  0.10693957  0.68924478    -0.19600
H1646       H  0.36021760  0.13416282  0.66857569     0.16100
F1647       F  0.32752280  0.12197792  0.61076691    -0.23300
H1648       H  0.31136187  0.09411097  0.63129039     0.18000
C1649       C  0.21201531  0.92705403  0.81159953    -0.27300
C1650       C  0.20461376  0.93138425  0.79266752     0.06300
C1651       C  0.19003371  0.91896740  0.78452342     0.43500
C1652       C  0.18335615  0.90244846  0.79500244    -0.11800
C1653       C  0.19123584  0.89773810  0.81368233    -0.25700
C1654       C  0.20554943  0.91041518  0.82197365     0.36700
C1655       C  0.21360662  0.94768096  0.78097188     0.06300
F1656       F  0.18299166  0.92209726  0.76600148    -0.19500
H1657       H  0.17239722  0.89299744  0.78815432     0.16100
F1658       F  0.21340099  0.90682609  0.84008398    -0.23200
H1659       H  0.22313091  0.93645504  0.81828006     0.17900
C1660       C  0.20209900  0.96132676  0.77020870     0.25900
C1661       C  0.21127211  0.97588942  0.75865240    -0.11800
C1662       C  0.23198750  0.97743022  0.75810733    -0.25800
C1663       C  0.24339999  0.96406050  0.76921649     0.36800
C1664       C  0.23429171  0.94932962  0.78033785    -0.27400
F1665       F  0.18205759  0.96098095  0.77128436    -0.19600
H1666       H  0.20219222  0.98622411  0.75048191     0.16100
F1667       F  0.26346567  0.96482176  0.76892983    -0.23300
H1668       H  0.24351873  0.93893675  0.78826790     0.18000
C1669       C  0.30647168  0.91654362  0.65311785    -0.27300
C1670       C  0.31772162  0.93266213  0.65970498     0.06300
C1671       C  0.33807129  0.93333062  0.65558890     0.25900
C1672       C  0.34698216  0.91804980  0.64489262    -0.11800
C1673       C  0.33566037  0.90205555  0.63804467    -0.25700
C1674       C  0.31532968  0.90131665  0.64239207     0.36700
C1675       C  0.30810917  0.94839977  0.67130638     0.06300
F1676       F  0.34917399  0.94898467  0.66147698    -0.19500
H1677       H  0.36262552  0.91891945  0.64158003     0.16100
F1678       F  0.30412840  0.88563038  0.63677236    -0.23200
H1679       H  0.29084545  0.91565810  0.65652040     0.17900
C1680       C  0.29174914  0.95861014  0.66366834     0.25900
C1681       C  0.28192063  0.97256773  0.67527075    -0.11800
C1682       C  0.28827699  0.97662987  0.69465996    -0.25800
C1683       C  0.30500010  0.96665665  0.70209637     0.36800
C1684       C  0.31476184  0.95264045  0.69047153    -0.27400
F1685       F  0.28543208  0.95522391  0.64490805    -0.19600
H1686       H  0.26937215  0.98027123  0.66899765     0.16100
F1687       F  0.31176668  0.97012021  0.72067483    -0.23300
H1688       H  0.32730307  0.94477836  0.69657131     0.18000
C1689       C  0.29909842  0.84425288  0.57078128    -0.27300
C1690       C  0.30844982  0.83218824  0.55678878     0.06300
C1691       C  0.32920764  0.83169604  0.55593913     0.25900
C1692       C  0.34039431  0.84231533  0.56969085    -0.11800
C1693       C  0.33104312  0.85371811  0.58435283    -0.25700
C1694       C  0.31020143  0.85493420  0.58446697     0.36700
C1695       C  0.29635944  0.81951986  0.54380399     0.06300
F1696       F  0.33862457  0.82088391  0.54186973    -0.19500
H1697       H  0.35637154  0.84142816  0.56899372     0.16100
F1698       F  0.30037938  0.86564264  0.59832592    -0.23200
H1699       H  0.28310552  0.84482075  0.57158242     0.17900
C1700       C  0.29938444  0.79898128  0.54333473     0.25900
C1701       C  0.28779134  0.78705182  0.53110644    -0.11800
C1702       C  0.27279153  0.79537697  0.51942491    -0.25800
C1703       C  0.26938448  0.81591337  0.52039825     0.36800
C1704       C  0.28113154  0.82783528  0.53248139    -0.27400
F1705       F  0.31324484  0.79042485  0.55505453    -0.19600
H1706       H  0.29050153  0.77127879  0.53083092     0.16100
F1707       F  0.25517032  0.82461424  0.50921701    -0.23300
H1708       H  0.27850827  0.84362803  0.53283545     0.18000
C1709       C  0.42295654  0.84189804  0.61634144    -0.27300
C1710       C  0.42921746  0.84369690  0.63608800     0.06300
C1711       C  0.41654519  0.85278340  0.64989785     0.25900
C1712       C  0.39825284  0.86015000  0.64402177    -0.11800
C1713       C  0.39186970  0.85826107  0.62437396    -0.25700
C1714       C  0.40433832  0.84891440  0.61053352     0.36700
C1715       C  0.44835328  0.83531293  0.64281462     0.06300
F1716       F  0.42145512  0.85384996  0.66933917    -0.19500
H1717       H  0.38881626  0.86687473  0.65507902     0.16100
F1718       F  0.39869752  0.84677108  0.59138956    -0.23200
H1719       H  0.43245655  0.83505782  0.60542213     0.17900
C1720       C  0.45369401  0.81570480  0.63831229     0.25900
C1721       C  0.46935892  0.80666910  0.64835447    -0.11800
C1722       C  0.47983555  0.81697855  0.66308109    -0.25800
C1723       C  0.47568938  0.83715523  0.66612338     0.36800
C1724       C  0.46024165  0.84621182  0.65591450    -0.27400
F1725       F  0.44290083  0.80476657  0.62538856    -0.19600
H1726       H  0.47250754  0.79125981  0.64540125     0.16100
F1727       F  0.48605165  0.84803462  0.67945430    -0.23300
H1728       H  0.45690890  0.86155873  0.65901780     0.18000
C1729       C  0.82915060  0.08042673  0.18848597    -0.27300
C1730       C  0.81634619  0.09471507  0.18044616     0.06300
C1731       C  0.79578948  0.09190800  0.18213434     0.25900
C1732       C  0.78829838  0.07527869  0.19168004    -0.11800
C1733       C  0.80104970  0.06132507  0.20020874    -0.25700
C1734       C  0.82160605  0.06396291  0.19848296     0.36700
C1735       C  0.82432027  0.11263572  0.17058661     0.06300
F1736       F  0.78286069  0.10566593  0.17533988    -0.19500
H1737       H  0.77241986  0.07372847  0.19306576     0.16100
F1738       F  0.83437994  0.05059255  0.20627347    -0.23200
H1739       H  0.84501045  0.08201705  0.18705110     0.17900
C1740       C  0.83961238  0.12379817  0.17923052     0.25900
C1741       C  0.84632127  0.14109895  0.17015185    -0.11800
C1742       C  0.83785635  0.14777420  0.15235975    -0.25800
C1743       C  0.82259479  0.13649086  0.14369097     0.36800
C1744       C  0.81611970  0.11906841  0.15263713    -0.27400
F1745       F  0.84768254  0.11837880  0.19678067    -0.19600
H1746       H  0.85802567  0.14938980  0.17725077     0.16100
F1747       F  0.81393127  0.14205917  0.12647645    -0.23300
H1748       H  0.80462314  0.11055336  0.14545758     0.18000
C1749       C  0.75333863  0.08850591  0.28950589    -0.27300
C1750       C  0.73260601  0.08863352  0.29148782     0.06300
C1751       C  0.72151875  0.07402080  0.28158978     0.25900
C1752       C  0.73089486  0.06017967  0.26948042    -0.11800
C1753       C  0.75153333  0.06017615  0.26741005    -0.25700
C1754       C  0.76277263  0.07421086  0.27786147     0.36700
C1755       C  0.72256216  0.10427921  0.30331931     0.06300
F1756       F  0.70160934  0.07283179  0.28386407    -0.19500
H1757       H  0.72199101  0.04920425  0.26195147     0.16100
F1758       F  0.78279461  0.07453315  0.27634239    -0.23200
H1759       H  0.76225733  0.09970690  0.29663922     0.17900
C1760       C  0.72997181  0.11039940  0.32180088     0.25900
C1761       C  0.72047879  0.12540557  0.33244880    -0.11800
C1762       C  0.70325323  0.13446828  0.32510144    -0.25800
C1763       C  0.69569623  0.12812543  0.30674162     0.36800
C1764       C  0.70541261  0.11342305  0.29594251    -0.27400
F1765       F  0.74618815  0.10168946  0.32979641    -0.19600
H1766       H  0.72661535  0.12987275  0.34654435     0.16100
F1767       F  0.67929000  0.13650711  0.29878753    -0.23300
H1768       H  0.69964874  0.10944788  0.28155269     0.18000
C1769       C  0.74184302  0.96419921  0.29895288    -0.27300
C1770       C  0.72795654  0.95147495  0.29023845     0.06300
C1771       C  0.72476954  0.95216865  0.26976530     0.25900
C1772       C  0.73523032  0.96556121  0.25818236    -0.11800
C1773       C  0.74912128  0.97835678  0.26681639    -0.25700
C1774       C  0.75240456  0.97758836  0.28733934     0.36700
C1775       C  0.71732455  0.93691150  0.30232756     0.06300
F1776       F  0.71190727  0.93952674  0.26092461    -0.19500
H1777       H  0.73258611  0.96580982  0.24239572     0.16100
F1778       F  0.76530335  0.99014413  0.29624315    -0.23200
H1779       H  0.74437175  0.96382778  0.31475656     0.17900
C1780       C  0.72788583  0.92277802  0.31315155     0.25900
C1781       C  0.71780365  0.90796943  0.32324186    -0.11800
C1782       C  0.69702258  0.90696721  0.32265816    -0.25800
C1783       C  0.68643363  0.92148387  0.31221226     0.36800
C1784       C  0.69657718  0.93634441  0.30212045    -0.27400
F1785       F  0.74797068  0.92274660  0.31319125    -0.19600
H1786       H  0.72635962  0.89693366  0.33104185     0.16100
F1787       F  0.66636398  0.92140452  0.31179357    -0.23300
H1788       H  0.68827741  0.94730616  0.29394158     0.18000
C1789       C  0.61547000  0.85845854  0.30256474    -0.27300
C1790       C  0.60552954  0.84379372  0.31335159     0.06300
C1791       C  0.61301737  0.83816036  0.33190275     0.25900
C1792       C  0.63049342  0.84650641  0.33910794    -0.11800
C1793       C  0.64082837  0.86074939  0.32806798    -0.25700
C1794       C  0.63286950  0.86695204  0.30981459     0.36700
C1795       C  0.58821511  0.83353059  0.30459028     0.06300
F1796       F  0.60347197  0.82450600  0.34306444    -0.19500
H1797       H  0.63603599  0.84161686  0.35329258     0.16100
F1798       F  0.64223502  0.88058377  0.29847398    -0.23200
H1799       H  0.61016253  0.86285256  0.28812889     0.17900
C1800       C  0.57281534  0.84415205  0.29547484     0.25900
C1801       C  0.55733250  0.83409615  0.28613519    -0.11800
C1802       C  0.55675824  0.81334093  0.28603147    -0.25800
C1803       C  0.57189887  0.80273541  0.29547764     0.36800
C1804       C  0.58753875  0.81276278  0.30450109    -0.27400
F1805       F  0.57263456  0.86421934  0.29573318    -0.19600
H1806       H  0.54572391  0.84252951  0.27904483     0.16100
F1807       F  0.57210342  0.78267098  0.29516509    -0.23300
H1808       H  0.59943050  0.80424653  0.31098149     0.18000
C1809       C  0.72926131  0.84925816  0.39088064    -0.27300
C1810       C  0.72284635  0.83051656  0.39683954     0.06300
C1811       C  0.70462844  0.82328446  0.38990945     0.25900
C1812       C  0.69323160  0.83454474  0.37688997    -0.11800
C1813       C  0.69982624  0.85317868  0.37052023    -0.25700
C1814       C  0.71796266  0.86052203  0.37787054     0.36700
C1815       C  0.73524250  0.81867379  0.41032830     0.06300
F1816       F  0.69816001  0.80505504  0.39520788    -0.19500
H1817       H  0.67945580  0.82845009  0.37148200     0.16100
F1818       F  0.72495863  0.87855784  0.37255626    -0.23200
H1819       H  0.74307187  0.85522266  0.39637204     0.17900
C1820       C  0.75540075  0.81546649  0.40622746     0.25900
C1821       C  0.76701131  0.80443895  0.41923972    -0.11800
C1822       C  0.75861217  0.79623076  0.43629755    -0.25800
C1823       C  0.73851024  0.79949820  0.44045273     0.36800
C1824       C  0.72696650  0.81072400  0.42758755    -0.27400
F1825       F  0.76373756  0.82257980  0.38942282    -0.19600
H1826       H  0.78245614  0.80196900  0.41580827     0.16100
F1827       F  0.73018920  0.79236265  0.45725543    -0.23300
H1828       H  0.71160031  0.81340066  0.43120138     0.18000
C1829       C  0.83987983  0.91729330  0.17220728    -0.27300
C1830       C  0.81965833  0.92183584  0.17153505     0.06300
C1831       C  0.80668303  0.90923460  0.16131446     0.25900
C1832       C  0.81394026  0.89235601  0.15187514    -0.11800
C1833       C  0.83420694  0.88775592  0.15256300    -0.25700
C1834       C  0.84714507  0.90040036  0.16288838     0.36700
C1835       C  0.81229913  0.93966325  0.18172009     0.06300
F1836       F  0.78696770  0.91301425  0.16082335    -0.19500
H1837       H  0.80366572  0.88280516  0.14415007     0.16100
F1838       F  0.86689742  0.89685159  0.16351933    -0.23200
H1839       H  0.85011046  0.92700122  0.17980284     0.17900
C1840       C  0.81694931  0.94295790  0.20168410     0.25900
C1841       C  0.81027337  0.95996229  0.21121521    -0.11800
C1842       C  0.79868427  0.97387655  0.20109091    -0.25800
C1843       C  0.79403106  0.97061253  0.18107320     0.36800
C1844       C  0.80087385  0.95362264  0.17147170    -0.27400
F1845       F  0.82749369  0.92945172  0.21212315    -0.19600
H1846       H  0.81376065  0.96199199  0.22671119     0.16100
F1847       F  0.78319996  0.98394621  0.17071535    -0.23300
H1848       H  0.79741253  0.95142887  0.15599268     0.18000
C1849       C  0.08562337  0.73543250  0.26189640    -0.27300
C1850       C  0.09044828  0.71594610  0.25682850     0.06300
C1851       C  0.08040891  0.70653079  0.24130804     0.25900
C1852       C  0.06556252  0.71653932  0.23105638    -0.11800
C1853       C  0.06055859  0.73607881  0.23614017    -0.25700
C1854       C  0.07088708  0.74552503  0.25160364     0.36700
C1855       C  0.10596169  0.70556215  0.26791133     0.06300
F1856       F  0.08467428  0.68753575  0.23639528    -0.19500
H1857       H  0.05783277  0.70889984  0.21929002     0.16100
F1858       F  0.06702517  0.76457711  0.25663244    -0.23200
H1859       H  0.09343463  0.74287432  0.27374520     0.17900
C1860       C  0.12359602  0.69988529  0.25855693     0.25900
C1861       C  0.13847524  0.69056851  0.26938413    -0.11800
C1862       C  0.13604842  0.68713677  0.28969621    -0.25800
C1863       C  0.11829943  0.69266041  0.29900275     0.36800
C1864       C  0.10335288  0.70182176  0.28812199    -0.27400
F1865       F  0.12668694  0.70404622  0.23917386    -0.19600
H1866       H  0.15216407  0.68661580  0.26205496     0.16100
F1867       F  0.11531793  0.68894691  0.31849334    -0.23300
H1868       H  0.08974208  0.70606317  0.29543944     0.18000
C1869       C  0.07787914  0.80448720  0.14951271    -0.27300
C1870       C  0.08863770  0.81866391  0.16023947     0.06300
C1871       C  0.08386222  0.82208695  0.18017972     0.25900
C1872       C  0.06884342  0.81124353  0.18923313    -0.11800
C1873       C  0.05853034  0.79657882  0.17869986    -0.25700
C1874       C  0.06313234  0.79335149  0.15866282     0.36700
C1875       C  0.10565917  0.82880771  0.15099668     0.06300
F1876       F  0.09432601  0.83522271  0.19119825    -0.19500
H1877       H  0.06570005  0.81394064  0.20470343     0.16100
F1878       F  0.05343696  0.77946939  0.14786505    -0.23200
H1879       H  0.08109818  0.80182833  0.13405258     0.17900
C1880       C  0.11997422  0.81783222  0.14067620     0.25900
C1881       C  0.13664098  0.82714255  0.13306065    -0.11800
C1882       C  0.13957002  0.84755430  0.13568201    -0.25800
C1883       C  0.12510896  0.85864971  0.14574079     0.36800
C1884       C  0.10823927  0.84931629  0.15320895    -0.27400
F1885       F  0.11832860  0.79792770  0.13864035    -0.19600
H1886       H  0.14752150  0.81815891  0.12548685     0.16100
F1887       F  0.12710892  0.87846381  0.14821796    -0.23300
H1888       H  0.09721816  0.85809765  0.16081739     0.18000
C1889       C  0.91088394  0.83121629  0.16806789    -0.27300
C1890       C  0.92224386  0.82058357  0.15429171     0.06300
C1891       C  0.91497216  0.81814622  0.13494416     0.25900
C1892       C  0.89673537  0.82626666  0.12960051    -0.11800
C1893       C  0.88557182  0.83721357  0.14330810    -0.25700
C1894       C  0.89287056  0.83963128  0.16266146     0.36700
C1895       C  0.94114849  0.81149284  0.16066298     0.06300
F1896       F  0.92564214  0.80830905  0.12106319    -0.19500
H1897       H  0.89153076  0.82428901  0.11458986     0.16100
F1898       F  0.88246012  0.84970470  0.17658226    -0.23200
H1899       H  0.91580851  0.83277616  0.18321926     0.17900
C1900       C  0.95442160  0.82200979  0.17278611     0.25900
C1901       C  0.97067223  0.81245952  0.18113097    -0.11800
C1902       C  0.97430242  0.79241649  0.17716931    -0.25800
C1903       C  0.96189191  0.78226943  0.16388346     0.36800
C1904       C  0.94532004  0.79168845  0.15594596    -0.27400
F1905       F  0.95155472  0.84147378  0.17679950    -0.19600
H1906       H  0.98030523  0.82071309  0.19091124     0.16100
F1907       F  0.96507184  0.76295673  0.15940752    -0.23300
H1908       H  0.93528899  0.78319282  0.14681192     0.18000
C1909       C  0.92128078  0.68505814  0.25871433    -0.27300
C1910       C  0.93001328  0.70219923  0.26651246     0.06300
C1911       C  0.92236041  0.71031826  0.28407864     0.25900
C1912       C  0.90636410  0.70136318  0.29359711    -0.11800
C1913       C  0.89746541  0.68423793  0.28576445    -0.25700
C1914       C  0.90519487  0.67615106  0.26813205     0.36700
C1915       C  0.94639106  0.71199256  0.25569384     0.06300
F1916       F  0.92979756  0.72735808  0.29166764    -0.19500
H1917       H  0.90075417  0.70812400  0.30699082     0.16100
F1918       F  0.89729340  0.65968958  0.25981902    -0.23200
H1919       H  0.92693661  0.67853509  0.24521326     0.17900
C1920       C  0.96366863  0.71822281  0.26552122     0.25900
C1921       C  0.97833297  0.72853061  0.25524930    -0.11800
C1922       C  0.97631751  0.73218659  0.23494978    -0.25800
C1923       C  0.95951770  0.72527150  0.22491834     0.36800
C1924       C  0.94461186  0.71541284  0.23526750    -0.27400
F1925       F  0.96654231  0.71406669  0.28493638    -0.19600
H1926       H  0.99138820  0.73350223  0.26309387     0.16100
F1927       F  0.95711546  0.72884087  0.20531839    -0.23300
H1928       H  0.93144759  0.71081386  0.22739002     0.18000
C1929       C  0.83970169  0.60924357  0.26295632    -0.27300
C1930       C  0.82086673  0.60440455  0.27019942     0.06300
C1931       C  0.81317134  0.61515694  0.28625624     0.25900
C1932       C  0.82412887  0.63041019  0.29487058    -0.11800
C1933       C  0.84299489  0.63538489  0.28766526    -0.25700
C1934       C  0.85070853  0.62453792  0.27155168     0.36700
C1935       C  0.80939564  0.58796594  0.26125962     0.06300
F1936       F  0.79481462  0.61121932  0.29336014    -0.19500
H1937       H  0.81765667  0.63848668  0.30708642     0.16100
F1938       F  0.86899061  0.62836596  0.26423539    -0.23200
H1939       H  0.84602955  0.60096036  0.25079288     0.17900
C1940       C  0.80617959  0.58693327  0.24071997     0.25900
C1941       C  0.79483402  0.57158834  0.23266773    -0.11800
C1942       C  0.78625524  0.55725457  0.24497820    -0.25800
C1943       C  0.78968764  0.55816862  0.26546859     0.36800
C1944       C  0.80126311  0.57329352  0.27345662    -0.27400
F1945       F  0.81332956  0.60116487  0.22853845    -0.19600
H1946       H  0.79224404  0.57125535  0.21687442     0.16100
F1947       F  0.78208726  0.54428344  0.27778108    -0.23300
H1948       H  0.80385812  0.57357763  0.28924796     0.18000
C1949       C  0.82945504  0.68396947  0.37095394    -0.27300
C1950       C  0.83726305  0.70219794  0.37728285     0.06300
C1951       C  0.85245387  0.71089081  0.36598661     0.25900
C1952       C  0.85922879  0.70178549  0.34868374    -0.11800
C1953       C  0.85096883  0.68389820  0.34197694    -0.25700
C1954       C  0.83603603  0.67497955  0.35346984     0.36700
C1955       C  0.82921886  0.71226815  0.39527304     0.06300
F1956       F  0.86031256  0.72862084  0.37115801    -0.19500
H1957       H  0.87071173  0.70909713  0.34028284     0.16100
F1958       F  0.82771854  0.65756504  0.34794449    -0.23200
H1959       H  0.81817908  0.67659767  0.37957011     0.17900
C1960       C  0.80867880  0.71311757  0.39886421     0.25900
C1961       C  0.80129047  0.72308641  0.41545937    -0.11800
C1962       C  0.81408410  0.73291240  0.42855127    -0.25800
C1963       C  0.83457623  0.73207067  0.42505784     0.36800
C1964       C  0.84202292  0.72159531  0.40879967    -0.27400
F1965       F  0.79561068  0.70504648  0.38593108    -0.19600
H1966       H  0.78544565  0.72368685  0.41770484     0.16100
F1967       F  0.84747001  0.74111256  0.43751788    -0.23300
H1968       H  0.85788169  0.72079906  0.40681792     0.18000
C1969       C  0.23136688  0.63127646  0.67801210    -0.27300
C1970       C  0.22196954  0.61735297  0.69018431     0.06300
C1971       C  0.20143500  0.61850937  0.69308847     0.25900
C1972       C  0.19050216  0.63331475  0.68387144    -0.11800
C1973       C  0.19980818  0.64704828  0.67143806    -0.25700
C1974       C  0.22038453  0.64602324  0.66863726     0.36700
C1975       C  0.23352145  0.60145292  0.69959662     0.06300
F1976       F  0.19185384  0.60494218  0.70433153    -0.19500
H1977       H  0.17465229  0.63377274  0.68611763     0.16100
F1978       F  0.22992710  0.65952589  0.65728482    -0.23200
H1979       H  0.24722640  0.63076976  0.67586928     0.17900
C1980       C  0.24585576  0.58920843  0.68822161     0.25900
C1981       C  0.25612756  0.57373514  0.69714502    -0.11800
C1982       C  0.25420650  0.57014419  0.71752307    -0.25800
C1983       C  0.24203948  0.58259523  0.72894223     0.36800
C1984       C  0.23182659  0.59812627  0.72000171    -0.27400
F1985       F  0.24748376  0.59180882  0.66838657    -0.19600
H1986       H  0.26535852  0.56435839  0.68801354     0.16100
F1987       F  0.24027734  0.58005085  0.74876497    -0.23300
H1988       H  0.22260995  0.60762556  0.72902291     0.18000
C1989       C  0.19797195  0.73327548  0.55430600    -0.27300
C1990       C  0.20285759  0.71344677  0.55781968     0.06300
C1991       C  0.21391636  0.70295626  0.54369672     0.25900
C1992       C  0.22087436  0.71256103  0.52680962    -0.11800
C1993       C  0.21666940  0.73266497  0.52366163    -0.25700
C1994       C  0.20477118  0.74285103  0.53737702     0.36700
C1995       C  0.19712945  0.70426508  0.57672154     0.06300
F1996       F  0.21806198  0.68349529  0.54631043    -0.19500
H1997       H  0.22977999  0.70435202  0.51632266     0.16100
F1998       F  0.20064214  0.76234739  0.53506590    -0.23200
H1999       H  0.18949233  0.74156766  0.56508056     0.17900
C2000       C  0.21151895  0.69606533  0.58925557     0.25900
C2001       C  0.20612128  0.68862578  0.60771070    -0.11800
C2002       C  0.18635616  0.68946091  0.61406470    -0.25800
C2003       C  0.17193986  0.69752162  0.60138036     0.36800
C2004       C  0.17735208  0.70486747  0.58289534    -0.27400
F2005       F  0.23090918  0.69606357  0.58403791    -0.19600
H2006       H  0.21752759  0.68271170  0.61725721     0.16100
F2007       F  0.15258999  0.69814916  0.60667809    -0.23300
H2008       H  0.16610353  0.71114431  0.57338783     0.18000
C2009       C  0.62809385  0.18475994  0.65874434    -0.27300
C2010       C  0.62082546  0.20319291  0.65261674     0.06300
C2011       C  0.63215649  0.21451103  0.63936127     0.25900
C2012       C  0.65048829  0.20755632  0.63267810    -0.11800
C2013       C  0.65804677  0.18930575  0.63922637    -0.25700
C2014       C  0.64645678  0.17786938  0.65225325     0.36700
C2015       C  0.60242501  0.21115015  0.66164136     0.06300
F2016       F  0.62606669  0.23276166  0.63369256    -0.19500
H2017       H  0.65900594  0.21679288  0.62278096     0.16100
F2018       F  0.65284552  0.16011698  0.65904993    -0.23200
H2019       H  0.61962737  0.17577142  0.66892272     0.17900
C2020       C  0.58727744  0.21968657  0.65018251     0.25900
C2021       C  0.57080881  0.22832710  0.65940132    -0.11800
C2022       C  0.56895193  0.22809982  0.68010438    -0.25800
C2023       C  0.58369391  0.21879936  0.69142825     0.36800
C2024       C  0.60026093  0.21058020  0.68227726    -0.27400
F2025       F  0.58827147  0.21945890  0.63013704    -0.19600
H2026       H  0.55948050  0.23514560  0.65037896     0.16100
F2027       F  0.58263050  0.21850787  0.71146805    -0.23300
H2028       H  0.61173528  0.20419732  0.69143508     0.18000
C2029       C  0.72997500  0.22988422  0.58636153    -0.27300
C2030       C  0.73869487  0.22035179  0.57005954     0.06300
C2031       C  0.73739142  0.19960549  0.56858967     0.25900
C2032       C  0.72726952  0.18878328  0.58298869    -0.11800
C2033       C  0.71797458  0.19846996  0.59880811    -0.25700
C2034       C  0.71954769  0.21908330  0.60052273     0.36700
C2035       C  0.74869893  0.23213897  0.55449210     0.06300
F2036       F  0.74524463  0.18984641  0.55288438    -0.19500
H2037       H  0.72620184  0.17287838  0.58149563     0.16100
F2038       F  0.71140269  0.22870746  0.61615867    -0.23200
H2039       H  0.73123651  0.24573791  0.58813710     0.17900
C2040       C  0.73961788  0.24905413  0.54649088     0.25900
C2041       C  0.74888027  0.25972806  0.53144248    -0.11800
C2042       C  0.76732004  0.25373639  0.52393051    -0.25800
C2043       C  0.77647484  0.23686639  0.53207816     0.36800
C2044       C  0.76727806  0.22632768  0.54726238    -0.27400
F2045       F  0.72146110  0.25493086  0.55273704    -0.19600
H2046       H  0.74142316  0.27256464  0.52548831     0.16100
F2047       F  0.79424609  0.23036010  0.52535972    -0.23300
H2048       H  0.77472520  0.21356724  0.55339184     0.18000
C2049       C  0.66280626  0.60845527  0.17771615    -0.27300
C2050       C  0.68145459  0.60240846  0.17082810     0.06300
C2051       C  0.69088925  0.61352494  0.15607710     0.25900
C2052       C  0.68227035  0.63089316  0.14909799    -0.11800
C2053       C  0.66408448  0.63760218  0.15668216    -0.25700
C2054       C  0.65411935  0.62587301  0.17070542     0.36700
C2055       C  0.69186614  0.58559791  0.18017133     0.06300
F2056       F  0.70903117  0.60826189  0.14925463    -0.19500
H2057       H  0.69030199  0.63948602  0.13826593     0.16100
F2058       F  0.63611573  0.63124204  0.17778982    -0.23200
H2059       H  0.65517045  0.59987524  0.18884751     0.17900
C2060       C  0.69499728  0.58540617  0.20072073     0.25900
C2061       C  0.70660780  0.57067311  0.20933162    -0.11800
C2062       C  0.71552508  0.55606274  0.19758946    -0.25800
C2063       C  0.71195850  0.55591208  0.17707433     0.36800
C2064       C  0.70015863  0.57054608  0.16849011    -0.27400
F2065       F  0.68772556  0.60008216  0.21234511    -0.19600
H2066       H  0.70920935  0.57110191  0.22511954     0.16100
F2067       F  0.71974560  0.54157592  0.16534185    -0.23300
H2068       H  0.69774447  0.57033496  0.15266600     0.18000
C2069       C  0.60661027  0.70413330  0.19952050    -0.27300
C2070       C  0.59508762  0.71898142  0.19065646     0.06300
C2071       C  0.59696257  0.72223236  0.17018840     0.25900
C2072       C  0.61034935  0.71113061  0.15903678    -0.11800
C2073       C  0.62185983  0.69629523  0.16790898    -0.25700
C2074       C  0.61966477  0.69270714  0.18827532     0.36700
C2075       C  0.58131084  0.73104806  0.20282452     0.06300
F2076       F  0.58561165  0.73587709  0.16083252    -0.19500
H2077       H  0.61156985  0.71404812  0.14335107     0.16100
F2078       F  0.63059862  0.67866511  0.19752567    -0.23200
H2079       H  0.60579373  0.70157130  0.21528606     0.17900
C2080       C  0.56911908  0.72216004  0.21714361     0.25900
C2081       C  0.55622375  0.73364888  0.22845051    -0.11800
C2082       C  0.55489104  0.75415645  0.22551568    -0.25800
C2083       C  0.56707682  0.76309760  0.21125014     0.36800
C2084       C  0.58029581  0.75164922  0.20021095    -0.27400
F2085       F  0.56913162  0.70227685  0.21980865    -0.19600
H2086       H  0.54686237  0.72635451  0.23918061     0.16100
F2087       F  0.56644669  0.78290312  0.20811373    -0.23300
H2088       H  0.58984899  0.75895599  0.18967170     0.18000
C2089       C  0.81283431  0.07888544  0.79638526    -0.27300
C2090       C  0.82724527  0.09098158  0.78757010     0.06300
C2091       C  0.83242345  0.08757599  0.76770694     0.25900
C2092       C  0.82325156  0.07247533  0.75695258    -0.11800
C2093       C  0.80855075  0.06063538  0.76564846    -0.25700
C2094       C  0.80342881  0.06398506  0.78553964     0.36700
C2095       C  0.83642481  0.10735186  0.79901994     0.06300
F2096       F  0.84581841  0.09929100  0.75844269    -0.19500
H2097       H  0.82732744  0.07037825  0.74161072     0.16100
F2098       F  0.78952744  0.05273823  0.79462617    -0.23200
H2099       H  0.80884228  0.08097097  0.81174672     0.17900
C2100       C  0.82462917  0.12042471  0.81010986     0.25900
C2101       C  0.83329173  0.13587054  0.82072680    -0.11800
C2102       C  0.85386792  0.13885253  0.82034978    -0.25800
C2103       C  0.86571167  0.12576922  0.80926883     0.36800
C2104       C  0.85703584  0.11012723  0.79882091    -0.27400
F2105       F  0.80462485  0.11870361  0.81018248    -0.19600
H2106       H  0.82375339  0.14579996  0.82890228     0.16100
F2107       F  0.88567389  0.12782332  0.80876753    -0.23300
H2108       H  0.86646390  0.10007405  0.79066645     0.18000
C2109       C  0.74340719  0.12477424  0.65593681    -0.27300
C2110       C  0.73158584  0.11181359  0.66696708     0.06300
C2111       C  0.71100215  0.11461376  0.66730273     0.25900
C2112       C  0.70245376  0.13021941  0.65686672    -0.11800
C2113       C  0.71424095  0.14337257  0.64591454    -0.25700
C2114       C  0.73489394  0.14042815  0.64550101     0.36700
C2115       C  0.74080885  0.09565071  0.67841021     0.06300
F2116       F  0.69912527  0.10209924  0.67753724    -0.19500
H2117       H  0.68655254  0.13199618  0.65740383     0.16100
F2118       F  0.74700552  0.15297697  0.63559989    -0.23200
H2119       H  0.75932228  0.12299994  0.65574187     0.17900
C2120       C  0.75373800  0.08213279  0.66931282     0.25900
C2121       C  0.76221806  0.06683421  0.68030783    -0.11800
C2122       C  0.75780868  0.06469640  0.70047973    -0.25800
C2123       C  0.74499517  0.07837410  0.70959699     0.36800
C2124       C  0.73665242  0.09371105  0.69863043    -0.27400
F2125       F  0.75769561  0.08338243  0.64968132    -0.19600
H2126       H  0.77191417  0.05641662  0.67295283     0.16100
F2127       F  0.74080707  0.07719374  0.72919440    -0.23300
H2128       H  0.72700250  0.10419084  0.70596596     0.18000
C2129       C  0.11807278  0.83636676  0.79633678    -0.27300
C2130       C  0.10790135  0.82414486  0.80963389     0.06300
C2131       C  0.11538601  0.82159028  0.82881844     0.25900
C2132       C  0.13276348  0.83124745  0.83455844    -0.11800
C2133       C  0.14295670  0.84359795  0.82126806    -0.25700
C2134       C  0.13543925  0.84598519  0.80200903     0.36700
C2135       C  0.08997847  0.81361177  0.80286972     0.06300
F2136       F  0.10571751  0.81006304  0.84208028    -0.19500
H2137       H  0.13813034  0.82919326  0.84949145     0.16100
F2138       F  0.14510863  0.85712032  0.78842332    -0.23200
H2139       H  0.11271378  0.83816974  0.78136144     0.17900
C2140       C  0.07421575  0.82411681  0.79435301     0.25900
C2141       C  0.05872071  0.81399798  0.78516777    -0.11800
C2142       C  0.05852933  0.79325859  0.78464002    -0.25800
C2143       C  0.07377615  0.78272019  0.79409843     0.36800
C2144       C  0.08940035  0.79287373  0.80310612    -0.27400
F2145       F  0.07402607  0.84418176  0.79462788    -0.19600
H2146       H  0.04700362  0.82237167  0.77818169     0.16100
F2147       F  0.07430332  0.76266567  0.79345445    -0.23300
H2148       H  0.10152216  0.78455126  0.80943454     0.18000
C2149       C  0.11406757  0.71311799  0.67359862    -0.27300
C2150       C  0.11215799  0.70978048  0.69396086     0.06300
C2151       C  0.12555054  0.69715536  0.70351974     0.25900
C2152       C  0.14079967  0.68827522  0.69284576    -0.11800
C2153       C  0.14302956  0.69188672  0.67247918    -0.25700
C2154       C  0.12932514  0.70429895  0.66289430     0.36700
C2155       C  0.09600160  0.71938381  0.70499736     0.06300
F2156       F  0.12425927  0.69387401  0.72327606    -0.19500
H2157       H  0.15109845  0.67887762  0.70068948     0.16100
F2158       F  0.13048340  0.70791353  0.64320287    -0.23200
H2159       H  0.10361304  0.72250290  0.66593527     0.17900
C2160       C  0.09281791  0.73983061  0.70335560     0.25900
C2161       C  0.07690177  0.74862995  0.71303890    -0.11800
C2162       C  0.06402184  0.73725039  0.72467303    -0.25800
C2163       C  0.06740747  0.71681874  0.72657379     0.36800
C2164       C  0.08326869  0.70799397  0.71674004    -0.27400
F2165       F  0.10524480  0.75133774  0.69259682    -0.19600
H2166       H  0.07475646  0.76441665  0.71154842     0.16100
F2167       F  0.05508955  0.70525107  0.73737705    -0.23300
H2168       H  0.08536467  0.69217742  0.71794095     0.18000
C2169       C  0.77763310  0.82061963  0.04450170    -0.27300
C2170       C  0.79484463  0.81176630  0.05204506     0.06300
C2171       C  0.80029993  0.79290473  0.04516734     0.25900
C2172       C  0.78892147  0.78332743  0.03084116    -0.11800
C2173       C  0.77168238  0.79213976  0.02324950    -0.25700
C2174       C  0.76608225  0.81093571  0.03034102     0.36700
C2175       C  0.80631072  0.82177391  0.06785934     0.06300
F2176       F  0.81618670  0.78332649  0.05282496    -0.19500
H2177       H  0.79353890  0.76881743  0.02588881     0.16100
F2178       F  0.74945682  0.82001868  0.02372251    -0.23200
H2179       H  0.77308681  0.83510095  0.04962160     0.17900
C2180       C  0.82711246  0.82276293  0.06723318     0.25900
C2181       C  0.83761819  0.83093337  0.08304874    -0.11800
C2182       C  0.82757994  0.83881893  0.09941758    -0.25800
C2183       C  0.80678844  0.83867164  0.09964479     0.36800
C2184       C  0.79631326  0.83006210  0.08408521    -0.27400
F2185       F  0.83728222  0.81616455  0.05122411    -0.19600
H2186       H  0.85362219  0.83132620  0.08239484     0.16100
F2187       F  0.79657135  0.84611168  0.11525774    -0.23300
H2188       H  0.78033200  0.82945459  0.08495299     0.18000
C2189       C  0.71163841  0.71417114  0.05362839    -0.27300
C2190       C  0.69192232  0.71875832  0.05810964     0.06300
C2191       C  0.68151522  0.73192909  0.04585421     0.25900
C2192       C  0.69089657  0.74056788  0.02956314    -0.11800
C2193       C  0.71070002  0.73601939  0.02513556    -0.25700
C2194       C  0.72093814  0.72256474  0.03729303     0.36700
C2195       C  0.68260969  0.70993517  0.07580847     0.06300
F2196       F  0.66222726  0.73619276  0.04946021    -0.19500
H2197       H  0.68266019  0.75075110  0.02038396     0.16100
F2198       F  0.74018709  0.71797143  0.03387824    -0.23200
H2199       H  0.72000662  0.70430990  0.06304339     0.17900
C2200       C  0.68373715  0.68947560  0.07915874     0.25900
C2201       C  0.67574232  0.68132807  0.09630171    -0.11800
C2202       C  0.66638355  0.69335605  0.11045171    -0.25800
C2203       C  0.66532785  0.71389991  0.10713660     0.36800
C2204       C  0.67336147  0.72204782  0.08992724    -0.27400
F2205       F  0.69232904  0.67728567  0.06569946    -0.19600
H2206       H  0.67673092  0.66549559  0.09837142     0.16100
F2207       F  0.65707695  0.72621861  0.12069229    -0.23300
H2208       H  0.67274492  0.73789584  0.08781757     0.18000
C2209       C  0.91460232  0.83641575  0.79801951    -0.27300
C2210       C  0.91877901  0.81626664  0.80062195     0.06300
C2211       C  0.90487530  0.80422015  0.81031211     0.25900
C2212       C  0.88699406  0.81220729  0.81691285    -0.11800
C2213       C  0.88254727  0.83221871  0.81368845    -0.25700
C2214       C  0.89663020  0.84433478  0.80432546     0.36700
C2215       C  0.93736909  0.80786927  0.79267690     0.06300
F2216       F  0.90819727  0.78457592  0.81268347    -0.19500
H2217       H  0.87636279  0.80258346  0.82400922     0.16100
F2218       F  0.89319942  0.86389759  0.80146683    -0.23200
H2219       H  0.92527746  0.84605408  0.79100844     0.17900
C2220       C  0.94328920  0.81194944  0.77317531     0.25900
C2221       C  0.96060906  0.80369957  0.76563240    -0.11800
C2222       C  0.97222483  0.79099606  0.77722973    -0.25800
C2223       C  0.96640699  0.78701633  0.79679470     0.36800
C2224       C  0.94918898  0.79551761  0.80444712    -0.27400
F2225       F  0.93195834  0.82331004  0.76112653    -0.19600
H2226       H  0.96460887  0.80682209  0.75045279     0.16100
F2227       F  0.97737031  0.77505301  0.80858377    -0.23300
H2228       H  0.94508374  0.79245661  0.81960612     0.18000
C2229       C  0.82847381  0.90332843  0.77727226    -0.27300
C2230       C  0.81867337  0.91774519  0.78862778     0.06300
C2231       C  0.81410627  0.91351783  0.80850680     0.25900
C2232       C  0.81952011  0.89544490  0.81680923    -0.11800
C2233       C  0.83001120  0.88142366  0.80568540    -0.25700
C2234       C  0.83430590  0.88541928  0.78573738     0.36700
C2235       C  0.81305856  0.93699404  0.77967901     0.06300
F2236       F  0.80515761  0.92715068  0.82023027    -0.19500
H2237       H  0.81623981  0.89278116  0.83224505     0.16100
F2238       F  0.84400708  0.87198715  0.77437223    -0.23200
H2239       H  0.83162618  0.90590881  0.76180440     0.17900
C2240       C  0.82624181  0.94755965  0.76749527     0.25900
C2241       C  0.82042135  0.96543346  0.75886558    -0.11800
C2242       C  0.80150126  0.97327671  0.76244595    -0.25800
C2243       C  0.78854921  0.96290592  0.77505178     0.36800
C2244       C  0.79421245  0.94490081  0.78327439    -0.27400
F2245       F  0.84483490  0.94077979  0.76409667    -0.19600
H2246       H  0.83071435  0.97308206  0.74930621     0.16100
F2247       F  0.77008809  0.96973437  0.77902536    -0.23300
H2248       H  0.78360478  0.93693511  0.79220355     0.18000
C2249       C  0.77932916  0.81866905  0.91791664    -0.27300
C2250       C  0.79310952  0.80726096  0.90734733     0.06300
C2251       C  0.79631744  0.78752664  0.91280797     0.25900
C2252       C  0.78568534  0.77927122  0.92839412    -0.11800
C2253       C  0.77162929  0.79050150  0.93886072    -0.25700
C2254       C  0.76868076  0.81042242  0.93360915     0.36700
C2255       C  0.80393566  0.81584992  0.89046282     0.06300
F2256       F  0.80927258  0.77602354  0.90263946    -0.19500
H2257       H  0.78822631  0.76389727  0.93200550     0.16100
F2258       F  0.75573159  0.82199297  0.94369888    -0.23200
H2259       H  0.77689118  0.83399574  0.91403535     0.17900
C2260       C  0.79364126  0.82416161  0.87447635     0.25900
C2261       C  0.80400395  0.83196258  0.85842122    -0.11800
C2262       C  0.82477073  0.83139873  0.85795265    -0.25800
C2263       C  0.83506433  0.82302180  0.87397264     0.36800
C2264       C  0.82468147  0.81535790  0.89008609    -0.27400
F2265       F  0.77356545  0.82420730  0.87414205    -0.19600
H2266       H  0.79576828  0.83817174  0.84618900     0.16100
F2267       F  0.85513764  0.82273620  0.87435849    -0.23300
H2268       H  0.83283406  0.80914251  0.90237300     0.18000
C2269       C  0.93113896  0.68540200  0.68452467    -0.27300
C2270       C  0.93602617  0.70535863  0.68161588     0.06300
C2271       C  0.92616851  0.71603954  0.66673884     0.25900
C2272       C  0.91168993  0.70691995  0.65515091    -0.11800
C2273       C  0.90650283  0.68705418  0.65829120    -0.25700
C2274       C  0.91647694  0.67632698  0.67311150     0.36700
C2275       C  0.95135406  0.71496033  0.69408594     0.06300
F2276       F  0.93002659  0.73550863  0.66381408    -0.19500
H2277       H  0.90417652  0.71562407  0.64403685     0.16100
F2278       F  0.91227589  0.65701171  0.67652572    -0.23200
H2279       H  0.93877855  0.67675586  0.69559674     0.17900
C2280       C  0.95130600  0.71278767  0.71479392     0.25900
C2281       C  0.96555470  0.72236384  0.72633560    -0.11800
C2282       C  0.97989746  0.73449735  0.71751360    -0.25800
C2283       C  0.98013335  0.73643224  0.69681509     0.36800
C2284       C  0.96609129  0.72662272  0.68526115    -0.27400
F2285       F  0.93708583  0.70200763  0.72396498    -0.19600
H2286       H  0.96502248  0.72073297  0.74224738     0.16100
F2287       F  0.99413032  0.74752787  0.68768318    -0.23300
H2288       H  0.96676703  0.72811932  0.66934713     0.18000
C2289       C  0.81244754  0.57509689  0.67017993    -0.27300
C2290       C  0.82299695  0.58968611  0.68052415     0.06300
C2291       C  0.82161767  0.59044527  0.70126598     0.25900
C2292       C  0.80978854  0.57690857  0.71140685    -0.11800
C2293       C  0.79890350  0.56257582  0.70105989    -0.25700
C2294       C  0.80053265  0.56159522  0.68032107     0.36700
C2295       C  0.83452837  0.60474711  0.66963383     0.06300
F2296       F  0.83103127  0.60481175  0.71167370    -0.19500
H2297       H  0.80870484  0.57798915  0.72734523     0.16100
F2298       F  0.79091276  0.54738720  0.66987914    -0.23200
H2299       H  0.81343852  0.57419610  0.65422199     0.17900
C2300       C  0.85426161  0.60882211  0.67469302     0.25900
C2301       C  0.86426036  0.62449245  0.66575050    -0.11800
C2302       C  0.85487211  0.63630617  0.65145826    -0.25800
C2303       C  0.83538885  0.63157261  0.64571150     0.36800
C2304       C  0.82538211  0.61592213  0.65475188    -0.27400
F2305       F  0.86385101  0.59769373  0.68835093    -0.19600
H2306       H  0.87935074  0.62748710  0.67019823     0.16100
F2307       F  0.82561666  0.64253694  0.63205300    -0.23300
H2308       H  0.81017681  0.61298929  0.65064850     0.18000
C2309       C  0.86719003  0.70725485  0.57105168    -0.27300
C2310       C  0.84702582  0.70618431  0.56610897     0.06300
C2311       C  0.83402973  0.69620906  0.57894894     0.25900
C2312       C  0.84115788  0.68728490  0.59611671    -0.11800
C2313       C  0.86126889  0.68846303  0.60112016    -0.25700
C2314       C  0.87425290  0.69867830  0.58848483     0.36700
C2315       C  0.83950579  0.71551765  0.54771826     0.06300
F2316       F  0.81430879  0.69552359  0.57522279    -0.19500
H2317       H  0.83082086  0.67975504  0.60573061     0.16100
F2318       F  0.89385181  0.69991873  0.59265205    -0.23200
H2319       H  0.87755314  0.71454884  0.56129572     0.17900
C2320       C  0.84494773  0.73490747  0.54248317     0.25900
C2321       C  0.83645477  0.74398456  0.52597887    -0.11800
C2322       C  0.82219648  0.73404874  0.51457033    -0.25800
C2323       C  0.81734233  0.71440458  0.51936599     0.36800
C2324       C  0.82609427  0.70523004  0.53562554    -0.27400
F2325       F  0.85762861  0.74551006  0.55388466    -0.19600
H2326       H  0.84038092  0.75914005  0.52268709     0.16100
F2327       F  0.80392837  0.70408948  0.50854774    -0.23300
H2328       H  0.82210058  0.69010761  0.53897243     0.18000
C2329       C  0.71098305  0.92137286  0.67319590    -0.27300
C2330       C  0.72585378  0.93288321  0.66440982     0.06300
C2331       C  0.73198114  0.92838638  0.64504958     0.25900
C2332       C  0.72345946  0.91259835  0.63478923    -0.11800
C2333       C  0.70856229  0.90106677  0.64353363    -0.25700
C2334       C  0.70236022  0.90563107  0.66290045     0.36700
C2335       C  0.73535104  0.94909057  0.67574107     0.06300
F2336       F  0.74599037  0.93946164  0.63591055    -0.19500
H2337       H  0.72841435  0.90951681  0.61988177     0.16100
F2338       F  0.68847489  0.89452156  0.67218770    -0.23200
H2339       H  0.70632009  0.92433073  0.68822208     0.17900
C2340       C  0.72393830  0.96341270  0.68564447     0.25900
C2341       C  0.73313476  0.97818699  0.69685776    -0.11800
C2342       C  0.75384559  0.97910729  0.69814899    -0.25800
C2343       C  0.76525619  0.96488414  0.68805915     0.36800
C2344       C  0.75605117  0.95000319  0.67706702    -0.27400
F2345       F  0.70391655  0.96333954  0.68417990    -0.19600
H2346       H  0.72406478  0.98904437  0.70436189     0.16100
F2347       F  0.78529702  0.96489765  0.68935603    -0.23300
H2348       H  0.76511542  0.93893840  0.66986207     0.18000
C2349       C  0.58779335  0.81609878  0.64317312    -0.27300
C2350       C  0.59823544  0.83123290  0.65292520     0.06300
C2351       C  0.59107163  0.83810510  0.67126043     0.25900
C2352       C  0.57413692  0.82982531  0.67965326    -0.11800
C2353       C  0.56410381  0.81424130  0.67025690    -0.25700
C2354       C  0.57106010  0.80750200  0.65179820     0.36700
C2355       C  0.61689218  0.83931225  0.64440968     0.06300
F2356       F  0.60089496  0.85223038  0.68161457    -0.19500
H2357       H  0.56925744  0.83526002  0.69390450     0.16100
F2358       F  0.56179519  0.79259131  0.64204499    -0.23200
H2359       H  0.59263153  0.81081563  0.62885979     0.17900
C2360       C  0.63141197  0.82670784  0.63630755     0.25900
C2361       C  0.64949086  0.83436753  0.62980706    -0.11800
C2362       C  0.65370882  0.85460652  0.63170148    -0.25800
C2363       C  0.63905489  0.86728627  0.63929431     0.36800
C2364       C  0.62076487  0.85972694  0.64524030    -0.27400
F2365       F  0.62864552  0.80684701  0.63560835    -0.19600
H2366       H  0.66055148  0.82429070  0.62409072     0.16100
F2367       F  0.64233916  0.88701713  0.64094592    -0.23300
H2368       H  0.60969342  0.86988171  0.65077087     0.18000
C2369       C  0.74641736  0.84234522  0.57622983    -0.27300
C2370       C  0.73697190  0.82942786  0.56303617     0.06300
C2371       C  0.71640899  0.82688386  0.56428095     0.25900
C2372       C  0.70550669  0.83685551  0.57873354    -0.11800
C2373       C  0.71487971  0.84960191  0.59225138    -0.25700
C2374       C  0.73554134  0.85234581  0.59076204     0.36700
C2375       C  0.74853306  0.81814590  0.54828528     0.06300
F2376       F  0.70684287  0.81488443  0.55132302    -0.19500
H2377       H  0.68966834  0.83459029  0.57928843     0.16100
F2378       F  0.74539159  0.86423481  0.60360710    -0.23200
H2379       H  0.76228763  0.84436972  0.57550917     0.17900
C2380       C  0.75910212  0.82780337  0.53325150     0.25900
C2381       C  0.76876949  0.81677989  0.51858362    -0.11800
C2382       C  0.76790636  0.79600986  0.51867911    -0.25800
C2383       C  0.75788960  0.78641850  0.53416721     0.36800
C2384       C  0.74829135  0.79742546  0.54879119    -0.27400
F2385       F  0.75930910  0.84784379  0.53227391    -0.19600
H2386       H  0.77634362  0.82447497  0.50678037     0.16100
F2387       F  0.75746768  0.76638668  0.53524767    -0.23300
H2388       H  0.74045251  0.78977641  0.56045530     0.18000
C2389       C  0.68689453  0.69211145  0.87937261    -0.27300
C2390       C  0.68307695  0.71170672  0.88521111     0.06300
C2391       C  0.67191078  0.72386074  0.87252555     0.25900
C2392       C  0.66491400  0.71653271  0.85447450    -0.11800
C2393       C  0.66925966  0.69711713  0.84836303    -0.25700
C2394       C  0.68025800  0.68490141  0.86115430     0.36700
C2395       C  0.69212881  0.71962124  0.90370773     0.06300
F2396       F  0.66869779  0.74317421  0.87693660    -0.19500
H2397       H  0.65668650  0.72639697  0.84493421     0.16100
F2398       F  0.68479593  0.66600848  0.85611163    -0.23200
H2399       H  0.69533180  0.68237196  0.88886178     0.17900
C2400       C  0.68149041  0.73174417  0.91694279     0.25900
C2401       C  0.69088512  0.73997485  0.93349524    -0.11800
C2402       C  0.71086143  0.73585080  0.93751135    -0.25800
C2403       C  0.72124451  0.72311083  0.92471078     0.36800
C2404       C  0.71200000  0.71526579  0.90798598    -0.27400
F2405       F  0.66195195  0.73538303  0.91413331    -0.19600
H2406       H  0.68248280  0.74951902  0.94324821     0.16100
F2407       F  0.74061847  0.71885384  0.92781828    -0.23300
H2408       H  0.72062522  0.70612380  0.89804719     0.18000
C2409       C  0.61155848  0.71507727  0.75809763    -0.27300
C2410       C  0.59941402  0.72837440  0.76843821     0.06300
C2411       C  0.60209368  0.73073694  0.78888712     0.25900
C2412       C  0.61672809  0.71993417  0.79873879    -0.11800
C2413       C  0.62893378  0.70650270  0.78843746    -0.25700
C2414       C  0.62620419  0.70427685  0.76789621     0.36700
C2415       C  0.58388913  0.73938936  0.75763812     0.06300
F2416       F  0.59019953  0.74303156  0.79942539    -0.19500
H2417       H  0.61828402  0.72191109  0.81455247     0.16100
F2418       F  0.63781666  0.69193454  0.75713178    -0.23200
H2419       H  0.60977782  0.71317866  0.74229062     0.17900
C2420       C  0.58330037  0.76017802  0.75781914     0.25900
C2421       C  0.56951391  0.77026681  0.74614609    -0.11800
C2422       C  0.55624923  0.75978883  0.73404265    -0.25800
C2423       C  0.55637318  0.73900742  0.73448252     0.36800
C2424       C  0.57012509  0.72895489  0.74612734    -0.27400
F2425       F  0.59661172  0.77072094  0.76853769    -0.19600
H2426       H  0.56962975  0.78627519  0.74608565     0.16100
F2427       F  0.54307350  0.72839115  0.72381551    -0.23300
H2428       H  0.57016164  0.71294644  0.74605149     0.18000
C2429       C  0.69137425  0.61791172  0.79712118    -0.27300
C2430       C  0.69665506  0.61745914  0.77703857     0.06300
C2431       C  0.69087220  0.63333139  0.76485367     0.25900
C2432       C  0.68037309  0.64939840  0.77276356    -0.11800
C2433       C  0.67570824  0.65010489  0.79299685    -0.25700
C2434       C  0.68111771  0.63404559  0.80506167     0.36700
C2435       C  0.70834440  0.60055298  0.76901369     0.06300
F2436       F  0.69608061  0.63371616  0.74547579    -0.19500
H2437       H  0.67650237  0.66161948  0.76319826     0.16100
F2438       F  0.67626359  0.63379290  0.82453282    -0.23200
H2439       H  0.69520374  0.60570729  0.80671928     0.17900
C2440       C  0.72551956  0.59383501  0.77868856     0.25900
C2441       C  0.73663121  0.57823546  0.77076973    -0.11800
C2442       C  0.73089948  0.56888304  0.75306939    -0.25800
C2443       C  0.71343991  0.57535214  0.74364227     0.36800
C2444       C  0.70239114  0.59101105  0.75153860    -0.27400
F2445       F  0.73192276  0.60270822  0.79553123    -0.19600
H2446       H  0.74988677  0.57361806  0.77846441     0.16100
F2447       F  0.70689856  0.56657160  0.72681098    -0.23300
H2448       H  0.68901864  0.59560210  0.74403201     0.18000
loop_ 
_geom_bond_atom_site_label_1 
_geom_bond_atom_site_label_2 
_geom_bond_distance 
_geom_bond_site_symmetry_2 
_ccdc_geom_bond_type 
C1            N2   1.359       .  A
C1            N6   1.364       .  A
C1         C2413   1.489       .  S
N2            C3   1.358       .  A
C3            N4   1.358       .  A
C3         C2393   1.488       .  S
N4            C5   1.359       .  A
C5            N6   1.362       .  A
C5         C2433   1.484       .  S
C7            N8   1.358       .  A
C7           N12   1.359       .  A
C7         C2362   1.480       .  S
N8            C9   1.358       .  A
C9           N10   1.358       .  A
C9         C2333   1.481       .  S
N10          C11   1.358       .  A
C11          N12   1.360       .  A
C11        C2373   1.486       .  S
C13          N14   1.359       .  A
C13          N18   1.359       .  A
C13        C2313   1.478       .  S
N14          C15   1.358       .  A
C15          N16   1.358       .  A
C15        C2302   1.483       .  S
N16          C17   1.357       .  A
C17          N18   1.359       .  A
C17        C2273   1.483       .  S
C19          N20   1.358       .  A
C19          N24   1.359       .  A
C19        C2262   1.476       .  S
N20          C21   1.358       .  A
C21          N22   1.355       .  A
C21        C2233   1.474       .  S
N22          C23   1.356       .  A
C23          N24   1.358       .  A
C23        C2213   1.475       .  S
O25         Ni33   1.921       .  S
O25          C35   1.282       .  A
O26         Ni33   1.919   1_554  S
O26          C36   1.282       .  A
O27         Ni33   1.923       .  S
O27          C37   1.283       .  A
O28         Ni33   1.923   1_554  S
O28          C38   1.283       .  A
O29         Ni34   1.906   1_554  S
O29          C38   1.279       .  A
O30         Ni34   1.904       .  S
O30          C37   1.279       .  A
O31         Ni34   1.913   1_554  S
O31          C36   1.281       .  A
O32         Ni34   1.915       .  S
O32          C35   1.281       .  A
Ni33        Ni34   2.386       .  S
C35        C2402   1.483       .  S
C36        C2173   1.484       .  S
C37        C2253   1.479       .  S
C38        C2193   1.479       .  S
O39         Ni47   1.917   1_655  S
O39          C49   1.281       .  A
O40         Ni47   1.917       .  S
O40          C50   1.281       .  A
O41         Ni47   1.915   1_655  S
O41          C51   1.281       .  A
O42         Ni47   1.913       .  S
O42          C52   1.281       .  A
O43         Ni48   1.905       .  S
O43          C52   1.280       .  A
O44         Ni48   1.906   1_655  S
O44          C51   1.280       .  A
O45         Ni48   1.915       .  S
O45          C50   1.281       .  A
O46         Ni48   1.915       .  S
O46          C49   1.281   1_455  A
Ni47        Ni48   2.388       .  S
C49        C2282   1.477       .  S
C50        C2142   1.475       .  S
C51        C2222   1.475       .  S
C52        C2162   1.472       .  S
O53         Ni61   1.911       .  S
O53          C63   1.280   1_545  A
O54         Ni61   1.914       .  S
O54          C64   1.281       .  A
O55         Ni61   1.923   1_565  S
O55          C65   1.283       .  A
O56         Ni61   1.923       .  S
O56          C66   1.283       .  A
O57         Ni62   1.906       .  S
O57          C66   1.279       .  A
O58         Ni62   1.905   1_565  S
O58          C65   1.279       .  A
O59         Ni62   1.921       .  S
O59          C64   1.282       .  A
O60         Ni62   1.923       .  S
O60          C63   1.283   1_545  A
Ni61        Ni62   2.386       .  S
C63        C2342   1.478       .  S
C64        C2093   1.481       .  S
C65        C2242   1.482       .  S
C66        C2122   1.476       .  S
C67          N68   1.360       .  A
C67          N72   1.357       .  A
C67        C2053   1.483       .  S
N68          C69   1.361       .  A
C69          N70   1.358       .  A
C69        C2073   1.479       .  S
N70          C71   1.356       .  A
C71          N72   1.356       .  A
C71        C2202   1.480       .  S
C73          N74   1.360       .  A
C73          N78   1.358       .  A
C73        C2013   1.489       .  S
N74          C75   1.359       .  A
C75          N76   1.357       .  A
C75        C2033   1.470       .  S
N76          C77   1.357       .  A
C77          N78   1.358       .  A
C77        C2113   1.483       .  S
C79          N80   1.355       .  A
C79          N84   1.357       .  A
C79        C2153   1.478       .  S
N80          C81   1.355       .  A
C81          N82   1.357       .  A
C81        C1973   1.470       .  S
N82          C83   1.358       .  A
C83          N84   1.357       .  A
C83        C2002   1.476       .  S
C85          N86   1.359       .  A
C85          N90   1.359       .  A
C85        C1953   1.491       .  S
N86          C87   1.361       .  A
C87          N88   1.359       .  A
C87        C1933   1.488       .  S
N88          C89   1.359       .  A
C89          N90   1.359       .  A
C89        C1913   1.489       .  S
O91         Ni99   1.910   1_655  S
O91         C101   1.280       .  A
O92         Ni99   1.914       .  S
O92         C102   1.281       .  A
O93         Ni99   1.917   1_655  S
O93         C103   1.281       .  A
O94         Ni99   1.915       .  S
O94         C104   1.282       .  A
O95        Ni100   1.908       .  S
O95         C104   1.280       .  A
O96        Ni100   1.913   1_655  S
O96         C103   1.280       .  A
O97        Ni100   1.908       .  S
O97         C102   1.280       .  A
O98        Ni100   1.913   1_655  S
O98         C101   1.282       .  A
Ni99       Ni100   2.389       .  S
C101       C1902   1.474       .  S
C102       C1853   1.476       .  S
C103       C1922   1.469       .  S
C104       C1873   1.476       .  S
C105        N106   1.356       .  A
C105        N110   1.358       .  A
C105       C2182   1.472       .  S
N106        C107   1.356       .  A
C107        N108   1.356       .  A
C107       C1833   1.475       .  S
N108        C109   1.356       .  A
C109        N110   1.359       .  A
C109       C1893   1.478       .  S
C111        N112   1.352       .  A
C111        N116   1.357       .  A
C111       C1782   1.474       .  S
N112        C113   1.352       .  A
C113        N114   1.360       .  A
C113       C1813   1.481       .  S
N114        C115   1.362       .  A
C115        N116   1.360       .  A
C115       C1793   1.485       .  S
O117       Ni125   1.907       .  S
O117        C127   1.280       .  A
O118       Ni125   1.903   1_565  S
O118        C128   1.279       .  A
O119       Ni125   1.913       .  S
O119        C129   1.281       .  A
O120       Ni125   1.914   1_565  S
O120        C130   1.280       .  A
O121       Ni126   1.910   1_565  S
O121        C130   1.281       .  A
O122       Ni126   1.914       .  S
O122        C129   1.280       .  A
O123       Ni126   1.916   1_565  S
O123        C128   1.281       .  A
O124       Ni126   1.919       .  S
O124        C127   1.282       .  A
Ni125      Ni126   2.389       .  S
C127       C1733   1.475       .  S
C128       C1773   1.469       .  S
C129       C1753   1.474       .  S
C130       C1842   1.472       .  S
C131        N132   1.353       .  A
C131        N136   1.355       .  A
C131       C1673   1.470       .  S
N132        C133   1.355       .  A
C133        N134   1.360       .  A
C133       C1693   1.478       .  S
N134        C135   1.360       .  A
C135        N136   1.359       .  A
C135       C1713   1.478       .  S
O137       Ni145   1.930   1_565  S
O137        C147   1.284       .  A
O138       Ni145   1.921       .  S
O138        C148   1.283       .  A
O139       Ni145   1.913   1_565  S
O139        C149   1.281       .  A
O140       Ni145   1.912       .  S
O140        C150   1.280       .  A
O141       Ni146   1.915       .  S
O141        C150   1.281       .  A
O142       Ni146   1.912   1_565  S
O142        C149   1.280       .  A
O143       Ni146   1.906       .  S
O143        C148   1.279       .  A
O144       Ni146   1.904   1_565  S
O144        C147   1.279       .  A
Ni145      Ni146   2.388       .  S
C147       C1662   1.479       .  S
C148       C1633   1.475       .  S
C149       C1682   1.478       .  S
C150       C1622   1.470       .  S
C151        N152   1.360       .  A
C151        N156   1.362       .  A
C151       C1653   1.487       .  S
N152        C153   1.358       .  A
C153        N154   1.355       .  A
C153       C2133   1.482       .  S
N154        C155   1.357       .  A
C155        N156   1.360       .  A
C155       C1593   1.482       .  S
C157        N158   1.359       .  A
C157        N162   1.355       .  A
C157       C1533   1.470       .  S
N158        C159   1.360       .  A
C159        N160   1.359       .  A
C159       C1582   1.473       .  S
N160        C161   1.359       .  A
C161        N162   1.354       .  A
C161       C1562   1.481       .  S
O163       Ni171   1.908       .  S
O163        C173   1.280       .  A
O164       Ni171   1.907       .  S
O164        C174   1.279   1_556  A
O165       Ni171   1.910       .  S
O165        C175   1.281       .  A
O166       Ni171   1.902   1_554  S
O166        C176   1.280       .  A
O167       Ni172   1.915       .  S
O167        C176   1.281   1_556  A
O168       Ni172   1.913       .  S
O168        C175   1.281       .  A
O169       Ni172   1.921       .  S
O169        C174   1.282   1_556  A
O170       Ni172   1.919       .  S
O170        C173   1.282       .  A
Ni171      Ni172   2.388       .  S
C173       C1602   1.479       .  S
C174       C1513   1.472       .  S
C175       C1542   1.480       .  S
C176       C1493   1.472       .  S
C177        N178   1.360       .  A
C177        N182   1.357       .  A
C177       C1453   1.483       .  S
N178        C179   1.360       .  A
C179        N180   1.360       .  A
C179       C1442   1.485       .  S
N180        C181   1.358       .  A
C181        N182   1.357       .  A
C181       C1482   1.478       .  S
O183       Ni191   1.926       .  S
O183        C193   1.283   1_455  A
O184       Ni191   1.921       .  S
O184        C194   1.283       .  A
O185       Ni191   1.912       .  S
O185        C195   1.281   1_455  A
O186       Ni191   1.917       .  S
O186        C196   1.280       .  A
O187       Ni192   1.912       .  S
O187        C196   1.281       .  A
O188       Ni192   1.921       .  S
O188        C195   1.282   1_455  A
O189       Ni192   1.920       .  S
O189        C194   1.282       .  A
O190       Ni192   1.914       .  S
O190        C193   1.280   1_455  A
Ni191      Ni192   2.388       .  S
C193       C1422   1.478       .  S
C194       C1393   1.486       .  S
C195       C1433   1.482       .  S
C196       C1373   1.470       .  S
C197        N198   1.355       .  A
C197        N202   1.358       .  A
C197       C2102   1.482       .  S
N198        C199   1.356       .  A
C199        N200   1.361       .  A
C199       C1362   1.484       .  S
N200        C201   1.362       .  A
C201        N202   1.361       .  A
C201       C1413   1.490       .  S
C203        N204   1.360       .  A
C203        N208   1.359       .  A
C203       C1333   1.484       .  S
N204        C205   1.358       .  A
C205        N206   1.357       .  A
C205       C1322   1.479       .  S
N206        C207   1.358       .  A
C207        N208   1.359       .  A
C207       C1293   1.488       .  S
O209       Ni217   1.920       .  S
O209        C219   1.282   1_556  A
O210       Ni217   1.917       .  S
O210        C220   1.281       .  A
O211       Ni217   1.917       .  S
O211        C221   1.282   1_556  A
O212       Ni217   1.925       .  S
O212        C222   1.283       .  A
O213       Ni218   1.908       .  S
O213        C222   1.279       .  A
O214       Ni218   1.904       .  S
O214        C221   1.279   1_556  A
O215       Ni218   1.912       .  S
O215        C220   1.280       .  A
O216       Ni218   1.920       .  S
O216        C219   1.283   1_556  A
Ni217      Ni218   2.388       .  S
C219       C1273   1.486       .  S
C220       C1353   1.474       .  S
C221       C1253   1.479       .  S
C222       C1302   1.474       .  S
C223        N224   1.354       .  A
C223        N228   1.353       .  A
C223       C1242   1.478       .  S
N224        C225   1.358       .  A
C225        N226   1.365       .  A
C225       C1282   1.489       .  S
N226        C227   1.365       .  A
C227        N228   1.356       .  A
C227       C1213   1.485       .  S
C229        N230   1.356       .  A
C229        N234   1.355       .  A
C229       C1193   1.474       .  S
N230        C231   1.357       .  A
C231        N232   1.360       .  A
C231       C1173   1.479       .  S
N232        C233   1.360       .  A
C233        N234   1.356       .  A
C233       C1522   1.484       .  S
C235        N236   1.355       .  A
C235        N240   1.357       .  A
C235       C1153   1.469       .  S
N236        C237   1.355       .  A
C237        N238   1.360       .  A
C237       C1133   1.479       .  S
N238        C239   1.362       .  A
C239        N240   1.361       .  A
C239       C1762   1.486       .  S
C241        N242   1.360       .  A
C241        N246   1.357       .  A
C241       C1122   1.476       .  S
N242        C243   1.360       .  A
C243        N244   1.358       .  A
C243       C1082   1.476       .  S
N244        C245   1.355       .  A
C245        N246   1.355       .  A
C245       C1093   1.483       .  S
C247        N248   1.361       .  A
C247        N252   1.358       .  A
C247       C1062   1.477       .  S
N248        C249   1.360       .  A
C249        N250   1.354       .  A
C249       C1882   1.477       .  S
N250        C251   1.351       .  A
C251        N252   1.355       .  A
C251       C1502   1.469       .  S
C253        N254   1.356       .  A
C253        N258   1.360       .  A
C253       C1033   1.471       .  S
N254        C255   1.355       .  A
C255        N256   1.356       .  A
C255       C1022   1.473       .  S
N256        C257   1.358       .  A
C257        N258   1.361       .  A
C257        C993   1.482       .  S
O259       Ni267   1.913       .  S
O259        C269   1.280       .  A
O260       Ni267   1.915   1_565  S
O260        C270   1.281       .  A
O261       Ni267   1.909       .  S
O261        C271   1.280       .  A
O262       Ni267   1.906       .  S
O262        C272   1.280   1_545  A
O263       Ni268   1.917       .  S
O263        C272   1.281   1_545  A
O264       Ni268   1.914       .  S
O264        C271   1.281       .  A
O265       Ni268   1.924   1_565  S
O265        C270   1.283       .  A
O266       Ni268   1.921       .  S
O266        C269   1.283       .  A
Ni267      Ni268   2.387       .  S
C269        C982   1.483       .  S
C270       C1002   1.482       .  S
C271       C1073   1.472       .  S
C272       C1053   1.470       .  S
C273        N274   1.358       .  A
C273        N278   1.357       .  A
C273        C953   1.481       .  S
N274        C275   1.359       .  A
C275        N276   1.357       .  A
C275       C1642   1.477       .  S
N276        C277   1.357       .  A
C277        N278   1.356       .  A
C277        C933   1.480       .  S
C279        N280   1.363       .  A
C279        N284   1.357       .  A
C279       C1402   1.488       .  S
N280        C281   1.364       .  A
C281        N282   1.359       .  A
C281        C913   1.489       .  S
N282        C283   1.357       .  A
C283        N284   1.356       .  A
C283        C902   1.480       .  S
C285        N286   1.360       .  A
C285        N290   1.358       .  A
C285        C853   1.487       .  S
N286        C287   1.361       .  A
C287        N288   1.361       .  A
C287        C842   1.487       .  S
N288        C289   1.362       .  A
C289        N290   1.359       .  A
C289        C882   1.491       .  S
C291        N292   1.360       .  A
C291        N296   1.359       .  A
C291       C1742   1.487       .  S
N292        C293   1.359       .  A
C293        N294   1.355       .  A
C293        C813   1.478       .  S
N294        C295   1.353       .  A
C295        N296   1.357       .  A
C295       C1262   1.468       .  S
C297        N298   1.355       .  A
C297        N302   1.360       .  A
C297        C802   1.488       .  S
N298        C299   1.356       .  A
C299        N300   1.360       .  A
C299        C773   1.485       .  S
N300        C301   1.362       .  A
C301        N302   1.362       .  A
C301        C753   1.488       .  S
O303       Ni311   1.914       .  S
O303        C313   1.281   1_455  A
O304       Ni311   1.917       .  S
O304        C314   1.281       .  A
O305       Ni311   1.919       .  S
O305        C315   1.282   1_455  A
O306       Ni311   1.922       .  S
O306        C316   1.282       .  A
O307       Ni312   1.922       .  S
O307        C316   1.283       .  A
O308       Ni312   1.913       .  S
O308        C315   1.280   1_455  A
O309       Ni312   1.920       .  S
O309        C314   1.282       .  A
O310       Ni312   1.924       .  S
O310        C313   1.283   1_455  A
Ni311      Ni312   2.386       .  S
C313        C762   1.485       .  S
C314        C733   1.478       .  S
C315        C822   1.474       .  S
C316        C833   1.490       .  S
C317        N318   1.357       .  A
C317        N322   1.357       .  A
C317        C693   1.480       .  S
N318        C319   1.358       .  A
C319        N320   1.357       .  A
C319        C722   1.480       .  S
N320        C321   1.358       .  A
C321        N322   1.358       .  A
C321       C1862   1.468       .  S
C323        N324   1.362       .  A
C323        N328   1.361       .  A
C323        C742   1.487       .  S
N324        C325   1.360       .  A
C325        N326   1.357       .  A
C325        C682   1.480       .  S
N326        C327   1.356       .  A
C327        N328   1.358       .  A
C327        C973   1.483       .  S
C329        N330   1.359       .  A
C329        N334   1.356       .  A
C329        C653   1.481       .  S
N330        C331   1.358       .  A
C331        N332   1.359       .  A
C331        C633   1.481       .  S
N332        C333   1.357       .  A
C333        N334   1.356       .  A
C333        C622   1.474       .  S
C335        N336   1.357       .  A
C335        N340   1.362       .  A
C335       C1613   1.486       .  S
N336        C337   1.357       .  A
C337        N338   1.355       .  A
C337       C1382   1.484       .  S
N338        C339   1.359       .  A
C339        N340   1.361       .  A
C339        C593   1.489       .  S
C341        N342   1.357       .  A
C341        N346   1.358       .  A
C341        C582   1.481       .  S
N342        C343   1.356       .  A
C343        N344   1.359       .  A
C343        C533   1.479       .  S
N344        C345   1.360       .  A
C345        N346   1.359       .  A
C345        C553   1.476       .  S
O347       Ni355   1.926   1_554  S
O347        C357   1.284       .  A
O348       Ni355   1.927       .  S
O348        C358   1.283       .  A
O349       Ni355   1.910   1_554  S
O349        C359   1.280       .  A
O350       Ni355   1.916       .  S
O350        C360   1.280       .  A
O351       Ni356   1.922       .  S
O351        C360   1.283       .  A
O352       Ni356   1.917       .  S
O352        C359   1.282   1_556  A
O353       Ni356   1.907       .  S
O353        C358   1.279       .  A
O354       Ni356   1.912       .  S
O354        C357   1.280   1_556  A
Ni355      Ni356   2.386       .  S
C357        C673   1.486       .  S
C358        C542   1.478       .  S
C359        C613   1.479       .  S
C360        C602   1.480       .  S
O361       Ni369   1.922       .  S
O361        C371   1.283       .  A
O362       Ni369   1.926       .  S
O362        C372   1.283       .  A
O363       Ni369   1.920       .  S
O363        C373   1.282       .  A
O364       Ni369   1.922       .  S
O364        C374   1.282       .  A
O365       Ni370   1.907       .  S
O365        C374   1.279       .  A
O366       Ni370   1.909       .  S
O366        C373   1.280       .  A
O367       Ni370   1.905       .  S
O367        C372   1.280       .  A
O368       Ni370   1.909       .  S
O368        C371   1.280       .  A
Ni369      Ni370   2.387       .  S
C371        C702   1.480       .  S
C372        C642   1.482       .  S
C373       C1182   1.478       .  S
C374        C873   1.471       .  S
O375       Ni383   1.916       .  S
O375        C385   1.282       .  A
O376       Ni383   1.919       .  S
O376        C386   1.283       .  A
O377       Ni383   1.906       .  S
O377        C387   1.279       .  A
O378       Ni383   1.909       .  S
O378        C388   1.279       .  A
O379       Ni384   1.928       .  S
O379        C388   1.284       .  A
O380       Ni384   1.929       .  S
O380        C387   1.283       .  A
O381       Ni384   1.913       .  S
O381        C386   1.280       .  A
O382       Ni384   1.914       .  S
O382        C385   1.281       .  A
Ni383      Ni384   2.386       .  S
C385        C662   1.480       .  S
C386       C1142   1.485       .  S
C387       C1102   1.477       .  S
C388       C1222   1.482       .  S
O389       Ni397   1.918       .  S
O389        C399   1.282       .  A
O390       Ni397   1.915       .  S
O390        C400   1.281       .  A
O391       Ni397   1.914       .  S
O391        C401   1.281       .  A
O392       Ni397   1.912       .  S
O392        C402   1.281       .  A
O393       Ni398   1.914       .  S
O393        C402   1.281       .  A
O394       Ni398   1.912       .  S
O394        C401   1.281       .  A
O395       Ni398   1.916       .  S
O395        C400   1.281       .  A
O396       Ni398   1.923       .  S
O396        C399   1.283       .  A
Ni397      Ni398   2.386       .  S
C399        C862   1.489       .  S
C400        C942   1.476       .  S
C401       C1113   1.479       .  S
C402        C893   1.478       .  S
O403       Ni411   1.909       .  S
O403        C413   1.280       .  A
O404       Ni411   1.912       .  S
O404        C414   1.281       .  A
O405       Ni411   1.917       .  S
O405        C415   1.282       .  A
O406       Ni411   1.916       .  S
O406        C416   1.281       .  A
O407       Ni412   1.909       .  S
O407        C416   1.280       .  A
O408       Ni412   1.907       .  S
O408        C415   1.279       .  A
O409       Ni412   1.914       .  S
O409        C414   1.282       .  A
O410       Ni412   1.916       .  S
O410        C413   1.281       .  A
Ni411      Ni412   2.388       .  S
C413       C1993   1.474       .  S
C414       C1042   1.481       .  S
C415       C1702   1.475       .  S
C416        C713   1.475       .  S
O417       Ni425   1.910       .  S
O417        C427   1.280       .  A
O418       Ni425   1.910       .  S
O418        C428   1.279       .  A
O419       Ni425   1.925       .  S
O419        C429   1.284       .  A
O420       Ni425   1.920       .  S
O420        C430   1.283       .  A
O421       Ni426   1.914       .  S
O421        C430   1.281       .  A
O422       Ni426   1.912       .  S
O422        C429   1.280       .  A
O423       Ni426   1.923       .  S
O423        C428   1.282       .  A
O424       Ni426   1.920       .  S
O424        C427   1.283       .  A
Ni425      Ni426   2.386       .  S
C427       C2042   1.484       .  S
C428        C793   1.473       .  S
C429       C1462   1.484       .  S
C430       C1162   1.485       .  S
O431       Ni439   1.919       .  S
O431        C441   1.282       .  A
O432       Ni439   1.915       .  S
O432        C442   1.282       .  A
O433       Ni439   1.909       .  S
O433        C443   1.280       .  A
O434       Ni439   1.904       .  S
O434        C444   1.279       .  A
O435       Ni440   1.919       .  S
O435        C444   1.282       .  A
O436       Ni440   1.916       .  S
O436        C443   1.282       .  A
O437       Ni440   1.915       .  S
O437        C442   1.280       .  A
O438       Ni440   1.916       .  S
O438        C441   1.281       .  A
Ni439      Ni440   2.388       .  S
C441        C922   1.482       .  S
C442       C1553   1.475       .  S
C443        C573   1.477       .  S
C444       C1982   1.475       .  S
O445       Ni453   1.920       .  S
O445        C455   1.282       .  A
O446       Ni453   1.918       .  S
O446        C456   1.282       .  A
O447       Ni453   1.913       .  S
O447        C457   1.281       .  A
O448       Ni453   1.909       .  S
O448        C458   1.279       .  A
O449       Ni454   1.913       .  S
O449        C458   1.281       .  A
O450       Ni454   1.920       .  S
O450        C457   1.282       .  A
O451       Ni454   1.918       .  S
O451        C456   1.282       .  A
O452       Ni454   1.911       .  S
O452        C455   1.280       .  A
Ni453      Ni454   2.389       .  S
C455       C2062   1.475       .  S
C456        C782   1.479       .  S
C457       C1942   1.477       .  S
C458       C1233   1.470       .  S
O459       Ni467   1.922       .  S
O459        C469   1.283       .  A
O460       Ni467   1.923       .  S
O460        C470   1.282       .  A
O461       Ni467   1.911       .  S
O461        C471   1.280       .  A
O462       Ni467   1.916       .  S
O462        C472   1.281       .  A
O463       Ni468   1.918       .  S
O463        C472   1.282       .  A
O464       Ni468   1.915       .  S
O464        C471   1.282       .  A
O465       Ni468   1.915       .  S
O465        C470   1.281       .  A
O466       Ni468   1.912       .  S
O466        C469   1.280       .  A
Ni467      Ni468   2.387       .  S
C469        C562   1.484       .  S
C470       C2022   1.479       .  S
C471        C962   1.476       .  S
C472       C1313   1.483       .  S
O473       Ni481   1.912       .  S
O473        C483   1.281       .  A
O474       Ni481   1.917       .  S
O474        C484   1.282       .  A
O475       Ni481   1.911       .  S
O475        C485   1.280       .  A
O476       Ni481   1.911       .  S
O476        C486   1.280       .  A
O477       Ni482   1.919       .  S
O477        C486   1.282       .  A
O478       Ni482   1.919       .  S
O478        C485   1.282       .  A
O479       Ni482   1.908       .  S
O479        C484   1.280       .  A
O480       Ni482   1.913       .  S
O480        C483   1.280       .  A
Ni481      Ni482   2.387       .  S
C483       C1013   1.478       .  S
C484       C2082   1.477       .  S
C485       C1202   1.480       .  S
C486       C1802   1.474       .  S
O487       Ni495   1.921       .  S
O487        C497   1.282       .  A
O488       Ni495   1.916       .  S
O488        C498   1.281       .  A
O489       Ni495   1.908       .  S
O489        C499   1.279       .  A
O490       Ni495   1.909       .  S
O490        C500   1.280       .  A
O491       Ni496   1.917       .  S
O491        C500   1.282       .  A
O492       Ni496   1.916       .  S
O492        C499   1.281       .  A
O493       Ni496   1.923       .  S
O493        C498   1.282       .  A
O494       Ni496   1.922       .  S
O494        C497   1.282       .  A
Ni495      Ni496   2.387       .  S
C497       C1962   1.483       .  S
C498       C2382   1.479       .  S
C499       C1822   1.467       .  S
C500       C2322   1.478       .  S
O501       Ni509   1.923       .  S
O501        C511   1.283       .  A
O502       Ni509   1.923       .  S
O502        C512   1.283       .  A
O503       Ni509   1.917       .  S
O503        C513   1.281       .  A
O504       Ni509   1.919       .  S
O504        C514   1.282       .  A
O505       Ni510   1.914       .  S
O505        C514   1.281       .  A
O506       Ni510   1.913       .  S
O506        C513   1.281       .  A
O507       Ni510   1.921       .  S
O507        C512   1.282       .  A
O508       Ni510   1.913       .  S
O508        C511   1.281       .  A
Ni509      Ni510   2.386       .  S
C511       C1473   1.482       .  S
C512       C2442   1.491       .  S
C513       C1342   1.478       .  S
C514       C2293   1.477       .  S
O515       Ni523   1.919       .  S
O515        C525   1.282       .  A
O516       Ni523   1.914       .  S
O516        C526   1.282       .  A
O517       Ni523   1.913       .  S
O517        C527   1.281       .  A
O518       Ni523   1.914       .  S
O518        C528   1.280       .  A
O519       Ni524   1.916       .  S
O519        C528   1.282       .  A
O520       Ni524   1.918       .  S
O520        C527   1.281       .  A
O521       Ni524   1.919       .  S
O521        C526   1.282       .  A
O522       Ni524   1.917       .  S
O522        C525   1.282       .  A
Ni523      Ni524   2.386       .  S
C525       C1573   1.487       .  S
C526       C2353   1.483       .  S
C527       C1722   1.481       .  S
C528       C2422   1.476       .  S
C529        C530   1.404       .  A
C529        C534   1.395       .  A
C529        H539   1.083       .  S
C530        C535   1.482       .  S
C530        C531   1.406       .  A
C531        C532   1.400       .  A
C531        F536   1.357       .  S
C532        C533   1.405       .  A
C532        H537   1.082       .  S
C533        C534   1.409       .  A
C534        F538   1.358       .  S
C535        C540   1.405       .  A
C535        C544   1.406       .  A
C540        C541   1.396       .  A
C540        F545   1.358       .  S
C541        C542   1.406       .  A
C541        H546   1.083       .  S
C542        C543   1.406       .  A
C543        C544   1.400       .  A
C543        F547   1.357       .  S
C544        H548   1.082       .  S
C549        C550   1.404       .  A
C549        C554   1.398       .  A
C549        H559   1.083       .  S
C550        C555   1.480       .  S
C550        C551   1.405       .  A
C551        C552   1.399       .  A
C551        F556   1.358       .  S
C552        C553   1.405       .  A
C552        H557   1.083       .  S
C553        C554   1.406       .  A
C554        F558   1.357       .  S
C555        C560   1.406       .  A
C555        C564   1.402       .  A
C560        C561   1.399       .  A
C560        F565   1.357       .  S
C561        C562   1.407       .  A
C561        H566   1.083       .  S
C562        C563   1.411       .  A
C563        C564   1.397       .  A
C563        F567   1.357       .  S
C564        H568   1.083       .  S
C569        C570   1.405       .  A
C569        C574   1.397       .  A
C569        H579   1.083       .  S
C570        C575   1.480       .  S
C570        C571   1.405       .  A
C571        C572   1.396       .  A
C571        F576   1.357       .  S
C572        C573   1.406       .  A
C572        H577   1.083       .  S
C573        C574   1.407       .  A
C574        F578   1.358       .  S
C575        C580   1.405       .  A
C575        C584   1.404       .  A
C580        C581   1.395       .  A
C580        F585   1.358       .  S
C581        C582   1.407       .  A
C581        H586   1.082       .  S
C582        C583   1.409       .  A
C583        C584   1.398       .  A
C583        F587   1.357       .  S
C584        H588   1.082       .  S
C589        C590   1.406       .  A
C589        C594   1.403       .  A
C589        H599   1.082       .  S
C590        C595   1.489       .  S
C590        C591   1.406       .  A
C591        C592   1.393       .  A
C591        F596   1.358       .  S
C592        C593   1.406       .  A
C592        H597   1.082       .  S
C593        C594   1.412       .  A
C594        F598   1.357       .  S
C595        C600   1.409       .  A
C595        C604   1.406       .  A
C600        C601   1.402       .  A
C600        F605   1.357       .  S
C601        C602   1.407       .  A
C601        H606   1.083       .  S
C602        C603   1.405       .  A
C603        C604   1.396       .  A
C603        F607   1.357       .  S
C604        H608   1.083       .  S
C609        C610   1.405       .  A
C609        C614   1.397       .  A
C609        H619   1.082       .  S
C610        C615   1.483       .  S
C610        C611   1.406       .  A
C611        C612   1.395       .  A
C611        F616   1.358       .  S
C612        C613   1.406       .  A
C612        H617   1.082       .  S
C613        C614   1.408       .  A
C614        F618   1.357       .  S
C615        C620   1.408       .  A
C615        C624   1.405       .  A
C620        C621   1.398       .  A
C620        F625   1.357       .  S
C621        C622   1.404       .  A
C621        H626   1.083       .  S
C622        C623   1.406       .  A
C623        C624   1.394       .  A
C623        F627   1.358       .  S
C624        H628   1.082       .  S
C629        C630   1.405       .  A
C629        C634   1.399       .  A
C629        H639   1.083       .  S
C630        C635   1.484       .  S
C630        C631   1.407       .  A
C631        C632   1.395       .  A
C631        F636   1.357       .  S
C632        C633   1.404       .  A
C632        H637   1.083       .  S
C633        C634   1.410       .  A
C634        F638   1.357       .  S
C635        C640   1.405       .  A
C635        C644   1.407       .  A
C640        C641   1.393       .  A
C640        F645   1.358       .  S
C641        C642   1.406       .  A
C641        H646   1.083       .  S
C642        C643   1.409       .  A
C643        C644   1.402       .  A
C643        F647   1.357       .  S
C644        H648   1.083       .  S
C649        C650   1.403       .  A
C649        C654   1.396       .  A
C649        H659   1.082       .  S
C650        C655   1.482       .  S
C650        C651   1.407       .  A
C651        C652   1.396       .  A
C651        F656   1.357       .  S
C652        C653   1.405       .  A
C652        H657   1.082       .  S
C653        C654   1.410       .  A
C654        F658   1.358       .  S
C655        C660   1.407       .  A
C655        C664   1.404       .  A
C660        C661   1.397       .  A
C660        F665   1.358       .  S
C661        C662   1.406       .  A
C661        H666   1.083       .  S
C662        C663   1.409       .  A
C663        C664   1.396       .  A
C663        F667   1.357       .  S
C664        H668   1.083       .  S
C669        C670   1.407       .  A
C669        C674   1.399       .  A
C669        H679   1.082       .  S
C670        C675   1.489       .  S
C670        C671   1.407       .  A
C671        C672   1.400       .  A
C671        F676   1.357       .  S
C672        C673   1.408       .  A
C672        H677   1.082       .  S
C673        C674   1.408       .  A
C674        F678   1.357       .  S
C675        C680   1.407       .  A
C675        C684   1.408       .  A
C680        C681   1.395       .  A
C680        F685   1.357       .  S
C681        C682   1.403       .  A
C681        H686   1.083       .  S
C682        C683   1.408       .  A
C683        C684   1.403       .  A
C683        F687   1.358       .  S
C684        H688   1.082       .  S
C689        C690   1.404       .  A
C689        C694   1.396       .  A
C689        H699   1.082       .  S
C690        C695   1.483       .  S
C690        C691   1.407       .  A
C691        C692   1.398       .  A
C691        F696   1.358       .  S
C692        C693   1.406       .  A
C692        H697   1.083       .  S
C693        C694   1.409       .  A
C694        F698   1.357       .  S
C695        C700   1.407       .  A
C695        C704   1.404       .  A
C700        C701   1.398       .  A
C700        F705   1.357       .  S
C701        C702   1.404       .  A
C701        H706   1.082       .  S
C702        C703   1.409       .  A
C703        C704   1.397       .  A
C703        F707   1.358       .  S
C704        H708   1.082       .  S
C709        C710   1.406       .  A
C709        C714   1.397       .  A
C709        H719   1.082       .  S
C710        C715   1.484       .  S
C710        C711   1.407       .  A
C711        C712   1.395       .  A
C711        F716   1.357       .  S
C712        C713   1.405       .  A
C712        H717   1.083       .  S
C713        C714   1.406       .  A
C714        F718   1.358       .  S
C715        C720   1.406       .  A
C715        C724   1.406       .  A
C720        C721   1.394       .  A
C720        F725   1.358       .  S
C721        C722   1.405       .  A
C721        H726   1.082       .  S
C722        C723   1.409       .  A
C723        C724   1.399       .  A
C723        F727   1.357       .  S
C724        H728   1.082       .  S
C729        C730   1.408       .  A
C729        C734   1.401       .  A
C729        H739   1.082       .  S
C730        C735   1.493       .  S
C730        C731   1.411       .  A
C731        C732   1.397       .  A
C731        F736   1.357       .  S
C732        C733   1.401       .  A
C732        H737   1.083       .  S
C733        C734   1.407       .  A
C734        F738   1.358       .  S
C735        C740   1.410       .  A
C735        C744   1.407       .  A
C740        C741   1.398       .  A
C740        F745   1.357       .  S
C741        C742   1.407       .  A
C741        H746   1.082       .  S
C742        C743   1.409       .  A
C743        C744   1.399       .  A
C743        F747   1.357       .  S
C744        H748   1.082       .  S
C749        C750   1.405       .  A
C749        C754   1.399       .  A
C749        H759   1.083       .  S
C750        C755   1.488       .  S
C750        C751   1.407       .  A
C751        C752   1.400       .  A
C751        F756   1.357       .  S
C752        C753   1.408       .  A
C752        H757   1.083       .  S
C753        C754   1.410       .  A
C754        F758   1.357       .  S
C755        C760   1.408       .  A
C755        C764   1.404       .  A
C760        C761   1.401       .  A
C760        F765   1.357       .  S
C761        C762   1.406       .  A
C761        H766   1.083       .  S
C762        C763   1.410       .  A
C763        C764   1.398       .  A
C763        F767   1.357       .  S
C764        H768   1.083       .  S
C769        C770   1.405       .  A
C769        C774   1.400       .  A
C769        H779   1.082       .  S
C770        C775   1.485       .  S
C770        C771   1.405       .  A
C771        C772   1.396       .  A
C771        F776   1.358       .  S
C772        C773   1.407       .  A
C772        H777   1.082       .  S
C773        C774   1.409       .  A
C774        F778   1.356       .  S
C775        C780   1.406       .  A
C775        C784   1.406       .  A
C780        C781   1.398       .  A
C780        F785   1.357       .  S
C781        C782   1.404       .  A
C781        H786   1.083       .  S
C782        C783   1.408       .  A
C783        C784   1.399       .  A
C783        F787   1.358       .  S
C784        H788   1.083       .  S
C789        C790   1.405       .  A
C789        C794   1.397       .  A
C789        H799   1.083       .  S
C790        C795   1.485       .  S
C790        C791   1.409       .  A
C791        C792   1.399       .  A
C791        F796   1.357       .  S
C792        C793   1.402       .  A
C792        H797   1.083       .  S
C793        C794   1.406       .  A
C794        F798   1.358       .  S
C795        C800   1.408       .  A
C795        C804   1.402       .  A
C800        C801   1.399       .  A
C800        F805   1.358       .  S
C801        C802   1.407       .  A
C801        H806   1.082       .  S
C802        C803   1.413       .  A
C803        C804   1.396       .  A
C803        F807   1.357       .  S
C804        H808   1.083       .  S
C809        C810   1.403       .  A
C809        C814   1.397       .  A
C809        H819   1.083       .  S
C810        C815   1.477       .  S
C810        C811   1.404       .  A
C811        C812   1.396       .  A
C811        F816   1.358       .  S
C812        C813   1.407       .  A
C812        H817   1.083       .  S
C813        C814   1.407       .  A
C814        F818   1.357       .  S
C815        C820   1.405       .  A
C815        C824   1.404       .  A
C820        C821   1.396       .  A
C820        F825   1.357       .  S
C821        C822   1.404       .  A
C821        H826   1.083       .  S
C822        C823   1.407       .  A
C823        C824   1.397       .  A
C823        F827   1.358       .  S
C824        H828   1.083       .  S
C829        C830   1.406       .  A
C829        C834   1.403       .  A
C829        H839   1.082       .  S
C830        C835   1.489       .  S
C830        C831   1.406       .  A
C831        C832   1.399       .  A
C831        F836   1.357       .  S
C832        C833   1.407       .  A
C832        H837   1.082       .  S
C833        C834   1.412       .  A
C834        F838   1.358       .  S
C835        C840   1.407       .  A
C835        C844   1.405       .  A
C840        C841   1.402       .  A
C840        F845   1.357       .  S
C841        C842   1.407       .  A
C841        H846   1.082       .  S
C842        C843   1.409       .  A
C843        C844   1.400       .  A
C843        F847   1.357       .  S
C844        H848   1.082       .  S
C849        C850   1.406       .  A
C849        C854   1.400       .  A
C849        H859   1.082       .  S
C850        C855   1.493       .  S
C850        C851   1.409       .  A
C851        C852   1.401       .  A
C851        F856   1.358       .  S
C852        C853   1.407       .  A
C852        H857   1.082       .  S
C853        C854   1.408       .  A
C854        F858   1.357       .  S
C855        C860   1.409       .  A
C855        C864   1.406       .  A
C860        C861   1.401       .  A
C860        F865   1.357       .  S
C861        C862   1.407       .  A
C861        H866   1.082       .  S
C862        C863   1.410       .  A
C863        C864   1.399       .  A
C863        F867   1.357       .  S
C864        H868   1.082       .  S
C869        C870   1.405       .  A
C869        C874   1.395       .  A
C869        H879   1.082       .  S
C870        C875   1.488       .  S
C870        C871   1.411       .  A
C871        C872   1.401       .  A
C871        F876   1.357       .  S
C872        C873   1.402       .  A
C872        H877   1.083       .  S
C873        C874   1.404       .  A
C874        F878   1.358       .  S
C875        C880   1.408       .  A
C875        C884   1.403       .  A
C880        C881   1.399       .  A
C880        F885   1.358       .  S
C881        C882   1.407       .  A
C881        H886   1.082       .  S
C882        C883   1.413       .  A
C883        C884   1.399       .  A
C883        F887   1.357       .  S
C884        H888   1.082       .  S
C889        C890   1.406       .  A
C889        C894   1.396       .  A
C889        H899   1.082       .  S
C890        C895   1.487       .  S
C890        C891   1.408       .  A
C891        C892   1.397       .  A
C891        F896   1.357       .  S
C892        C893   1.405       .  A
C892        H897   1.083       .  S
C893        C894   1.407       .  A
C894        F898   1.358       .  S
C895        C900   1.408       .  A
C895        C904   1.406       .  A
C900        C901   1.396       .  A
C900        F905   1.357       .  S
C901        C902   1.405       .  A
C901        H906   1.083       .  S
C902        C903   1.408       .  A
C903        C904   1.398       .  A
C903        F907   1.357       .  S
C904        H908   1.082       .  S
C909        C910   1.405       .  A
C909        C914   1.398       .  A
C909        H919   1.083       .  S
C910        C915   1.493       .  S
C910        C911   1.410       .  A
C911        C912   1.401       .  A
C911        F916   1.357       .  S
C912        C913   1.406       .  A
C912        H917   1.083       .  S
C913        C914   1.411       .  A
C914        F918   1.357       .  S
C915        C920   1.410       .  A
C915        C924   1.408       .  A
C920        C921   1.398       .  A
C920        F925   1.357       .  S
C921        C922   1.404       .  A
C921        H926   1.083       .  S
C922        C923   1.407       .  A
C923        C924   1.400       .  A
C923        F927   1.358       .  S
C924        H928   1.083       .  S
C929        C930   1.405       .  A
C929        C934   1.396       .  A
C929        H939   1.082       .  S
C930        C935   1.485       .  S
C930        C931   1.408       .  A
C931        C932   1.396       .  A
C931        F936   1.357       .  S
C932        C933   1.406       .  A
C932        H937   1.082       .  S
C933        C934   1.408       .  A
C934        F938   1.358       .  S
C935        C940   1.409       .  A
C935        C944   1.405       .  A
C940        C941   1.397       .  A
C940        F945   1.358       .  S
C941        C942   1.403       .  A
C941        H946   1.082       .  S
C942        C943   1.407       .  A
C943        C944   1.397       .  A
C943        F947   1.358       .  S
C944        H948   1.082       .  S
C949        C950   1.404       .  A
C949        C954   1.397       .  A
C949        H959   1.082       .  S
C950        C955   1.479       .  S
C950        C951   1.405       .  A
C951        C952   1.395       .  A
C951        F956   1.358       .  S
C952        C953   1.407       .  A
C952        H957   1.082       .  S
C953        C954   1.409       .  A
C954        F958   1.357       .  S
C955        C960   1.406       .  A
C955        C964   1.404       .  A
C960        C961   1.396       .  A
C960        F965   1.358       .  S
C961        C962   1.405       .  A
C961        H966   1.082       .  S
C962        C963   1.407       .  A
C963        C964   1.397       .  A
C963        F967   1.357       .  S
C964        H968   1.082       .  S
C969        C970   1.404       .  A
C969        C974   1.397       .  A
C969        H979   1.082       .  S
C970        C975   1.486       .  S
C970        C971   1.408       .  A
C971        C972   1.400       .  A
C971        F976   1.358       .  S
C972        C973   1.406       .  A
C972        H977   1.083       .  S
C973        C974   1.410       .  A
C974        F978   1.357       .  S
C975        C980   1.407       .  A
C975        C984   1.404       .  A
C980        C981   1.398       .  A
C980        F985   1.357       .  S
C981        C982   1.406       .  A
C981        H986   1.082       .  S
C982        C983   1.410       .  A
C983        C984   1.398       .  A
C983        F987   1.358       .  S
C984        H988   1.083       .  S
C989        C990   1.407       .  A
C989        C994   1.400       .  A
C989        H999   1.082       .  S
C990        C995   1.486       .  S
C990        C991   1.406       .  A
C991        C992   1.397       .  A
C991        F996   1.357       .  S
C992        C993   1.406       .  A
C992        H997   1.083       .  S
C993        C994   1.408       .  A
C994        F998   1.357       .  S
C995       C1000   1.406       .  A
C995       C1004   1.406       .  A
C1000      C1001   1.398       .  A
C1000      F1005   1.358       .  S
C1001      C1002   1.406       .  A
C1001      H1006   1.083       .  S
C1002      C1003   1.408       .  A
C1003      C1004   1.400       .  A
C1003      F1007   1.357       .  S
C1004      H1008   1.083       .  S
C1009      C1010   1.404       .  A
C1009      C1014   1.398       .  A
C1009      H1019   1.082       .  S
C1010      C1015   1.479       .  S
C1010      C1011   1.406       .  A
C1011      C1012   1.394       .  A
C1011      F1016   1.358       .  S
C1012      C1013   1.405       .  A
C1012      H1017   1.082       .  S
C1013      C1014   1.409       .  A
C1014      F1018   1.357       .  S
C1015      C1020   1.407       .  A
C1015      C1024   1.404       .  A
C1020      C1021   1.396       .  A
C1020      F1025   1.358       .  S
C1021      C1022   1.404       .  A
C1021      H1026   1.083       .  S
C1022      C1023   1.405       .  A
C1023      C1024   1.396       .  A
C1023      F1027   1.357       .  S
C1024      H1028   1.082       .  S
C1029      C1030   1.405       .  A
C1029      C1034   1.399       .  A
C1029      H1039   1.083       .  S
C1030      C1035   1.479       .  S
C1030      C1031   1.406       .  A
C1031      C1032   1.395       .  A
C1031      F1036   1.358       .  S
C1032      C1033   1.403       .  A
C1032      H1037   1.083       .  S
C1033      C1034   1.405       .  A
C1034      F1038   1.357       .  S
C1035      C1040   1.404       .  A
C1035      C1044   1.403       .  A
C1040      C1041   1.397       .  A
C1040      F1045   1.357       .  S
C1041      C1042   1.407       .  A
C1041      H1046   1.082       .  S
C1042      C1043   1.410       .  A
C1043      C1044   1.396       .  A
C1043      F1047   1.358       .  S
C1044      H1048   1.083       .  S
C1049      C1050   1.401       .  A
C1049      C1054   1.394       .  A
C1049      H1059   1.083       .  S
C1050      C1055   1.474       .  S
C1050      C1051   1.406       .  A
C1051      C1052   1.398       .  A
C1051      F1056   1.358       .  S
C1052      C1053   1.403       .  A
C1052      H1057   1.083       .  S
C1053      C1054   1.406       .  A
C1054      F1058   1.358       .  S
C1055      C1060   1.405       .  A
C1055      C1064   1.401       .  A
C1060      C1061   1.396       .  A
C1060      F1065   1.358       .  S
C1061      C1062   1.405       .  A
C1061      H1066   1.083       .  S
C1062      C1063   1.410       .  A
C1063      C1064   1.396       .  A
C1063      F1067   1.357       .  S
C1064      H1068   1.083       .  S
C1069      C1070   1.403       .  A
C1069      C1074   1.396       .  A
C1069      H1079   1.083       .  S
C1070      C1075   1.472       .  S
C1070      C1071   1.402       .  A
C1071      C1072   1.396       .  A
C1071      F1076   1.357       .  S
C1072      C1073   1.405       .  A
C1072      H1077   1.083       .  S
C1073      C1074   1.407       .  A
C1074      F1078   1.358       .  S
C1075      C1080   1.401       .  A
C1075      C1084   1.404       .  A
C1080      C1081   1.393       .  A
C1080      F1085   1.358       .  S
C1081      C1082   1.405       .  A
C1081      H1086   1.083       .  S
C1082      C1083   1.409       .  A
C1083      C1084   1.400       .  A
C1083      F1087   1.357       .  S
C1084      H1088   1.083       .  S
C1089      C1090   1.407       .  A
C1089      C1094   1.397       .  A
C1089      H1099   1.083       .  S
C1090      C1095   1.488       .  S
C1090      C1091   1.407       .  A
C1091      C1092   1.397       .  A
C1091      F1096   1.357       .  S
C1092      C1093   1.407       .  A
C1092      H1097   1.083       .  S
C1093      C1094   1.409       .  A
C1094      F1098   1.358       .  S
C1095      C1100   1.411       .  A
C1095      C1104   1.404       .  A
C1100      C1101   1.403       .  A
C1100      F1105   1.357       .  S
C1101      C1102   1.404       .  A
C1101      H1106   1.083       .  S
C1102      C1103   1.407       .  A
C1103      C1104   1.394       .  A
C1103      F1107   1.358       .  S
C1104      H1108   1.083       .  S
C1109      C1110   1.402       .  A
C1109      C1114   1.396       .  A
C1109      H1119   1.083       .  S
C1110      C1115   1.478       .  S
C1110      C1111   1.406       .  A
C1111      C1112   1.396       .  A
C1111      F1116   1.358       .  S
C1112      C1113   1.405       .  A
C1112      H1117   1.083       .  S
C1113      C1114   1.410       .  A
C1114      F1118   1.357       .  S
C1115      C1120   1.404       .  A
C1115      C1124   1.405       .  A
C1120      C1121   1.395       .  A
C1120      F1125   1.358       .  S
C1121      C1122   1.406       .  A
C1121      H1126   1.083       .  S
C1122      C1123   1.406       .  A
C1123      C1124   1.397       .  A
C1123      F1127   1.357       .  S
C1124      H1128   1.083       .  S
C1129      C1130   1.406       .  A
C1129      C1134   1.396       .  A
C1129      H1139   1.082       .  S
C1130      C1135   1.490       .  S
C1130      C1131   1.411       .  A
C1131      C1132   1.400       .  A
C1131      F1136   1.357       .  S
C1132      C1133   1.404       .  A
C1132      H1137   1.083       .  S
C1133      C1134   1.407       .  A
C1134      F1138   1.358       .  S
C1135      C1140   1.410       .  A
C1135      C1144   1.406       .  A
C1140      C1141   1.400       .  A
C1140      F1145   1.358       .  S
C1141      C1142   1.407       .  A
C1141      H1146   1.083       .  S
C1142      C1143   1.408       .  A
C1143      C1144   1.396       .  A
C1143      F1147   1.357       .  S
C1144      H1148   1.082       .  S
C1149      C1150   1.405       .  A
C1149      C1154   1.395       .  A
C1149      H1159   1.083       .  S
C1150      C1155   1.486       .  S
C1150      C1151   1.410       .  A
C1151      C1152   1.400       .  A
C1151      F1156   1.357       .  S
C1152      C1153   1.402       .  A
C1152      H1157   1.083       .  S
C1153      C1154   1.404       .  A
C1154      F1158   1.358       .  S
C1155      C1160   1.407       .  A
C1155      C1164   1.405       .  A
C1160      C1161   1.399       .  A
C1160      F1165   1.357       .  S
C1161      C1162   1.407       .  A
C1161      H1166   1.083       .  S
C1162      C1163   1.410       .  A
C1163      C1164   1.396       .  A
C1163      F1167   1.358       .  S
C1164      H1168   1.083       .  S
C1169      C1170   1.403       .  A
C1169      C1174   1.397       .  A
C1169      H1179   1.083       .  S
C1170      C1175   1.478       .  S
C1170      C1171   1.405       .  A
C1171      C1172   1.397       .  A
C1171      F1176   1.358       .  S
C1172      C1173   1.405       .  A
C1172      H1177   1.083       .  S
C1173      C1174   1.410       .  A
C1174      F1178   1.358       .  S
C1175      C1180   1.406       .  A
C1175      C1184   1.401       .  A
C1180      C1181   1.400       .  A
C1180      F1185   1.358       .  S
C1181      C1182   1.406       .  A
C1181      H1186   1.082       .  S
C1182      C1183   1.409       .  A
C1183      C1184   1.394       .  A
C1183      F1187   1.358       .  S
C1184      H1188   1.083       .  S
C1189      C1190   1.404       .  A
C1189      C1194   1.395       .  A
C1189      H1199   1.083       .  S
C1190      C1195   1.479       .  S
C1190      C1191   1.406       .  A
C1191      C1192   1.396       .  A
C1191      F1196   1.357       .  S
C1192      C1193   1.404       .  A
C1192      H1197   1.083       .  S
C1193      C1194   1.407       .  A
C1194      F1198   1.357       .  S
C1195      C1200   1.406       .  A
C1195      C1204   1.402       .  A
C1200      C1201   1.398       .  A
C1200      F1205   1.358       .  S
C1201      C1202   1.406       .  A
C1201      H1206   1.083       .  S
C1202      C1203   1.410       .  A
C1203      C1204   1.395       .  A
C1203      F1207   1.357       .  S
C1204      H1208   1.083       .  S
C1209      C1210   1.401       .  A
C1209      C1214   1.394       .  A
C1209      H1219   1.083       .  S
C1210      C1215   1.484       .  S
C1210      C1211   1.409       .  A
C1211      C1212   1.403       .  A
C1211      F1216   1.357       .  S
C1212      C1213   1.406       .  A
C1212      H1217   1.082       .  S
C1213      C1214   1.412       .  A
C1214      F1218   1.358       .  S
C1215      C1220   1.408       .  A
C1215      C1224   1.403       .  A
C1220      C1221   1.399       .  A
C1220      F1225   1.357       .  S
C1221      C1222   1.404       .  A
C1221      H1226   1.082       .  S
C1222      C1223   1.410       .  A
C1223      C1224   1.398       .  A
C1223      F1227   1.358       .  S
C1224      H1228   1.083       .  S
C1229      C1230   1.405       .  A
C1229      C1234   1.394       .  A
C1229      H1239   1.083       .  S
C1230      C1235   1.481       .  S
C1230      C1231   1.408       .  A
C1231      C1232   1.396       .  A
C1231      F1236   1.357       .  S
C1232      C1233   1.403       .  A
C1232      H1237   1.083       .  S
C1233      C1234   1.404       .  A
C1234      F1238   1.358       .  S
C1235      C1240   1.406       .  A
C1235      C1244   1.405       .  A
C1240      C1241   1.397       .  A
C1240      F1245   1.357       .  S
C1241      C1242   1.407       .  A
C1241      H1246   1.083       .  S
C1242      C1243   1.407       .  A
C1243      C1244   1.393       .  A
C1243      F1247   1.357       .  S
C1244      H1248   1.083       .  S
C1249      C1250   1.403       .  A
C1249      C1254   1.395       .  A
C1249      H1259   1.082       .  S
C1250      C1255   1.480       .  S
C1250      C1251   1.406       .  A
C1251      C1252   1.395       .  A
C1251      F1256   1.358       .  S
C1252      C1253   1.405       .  A
C1252      H1257   1.082       .  S
C1253      C1254   1.411       .  A
C1254      F1258   1.358       .  S
C1255      C1260   1.407       .  A
C1255      C1264   1.406       .  A
C1260      C1261   1.396       .  A
C1260      F1265   1.358       .  S
C1261      C1262   1.404       .  A
C1261      H1266   1.083       .  S
C1262      C1263   1.403       .  A
C1263      C1264   1.394       .  A
C1263      F1267   1.357       .  S
C1264      H1268   1.082       .  S
C1269      C1270   1.406       .  A
C1269      C1274   1.402       .  A
C1269      H1279   1.083       .  S
C1270      C1275   1.490       .  S
C1270      C1271   1.409       .  A
C1271      C1272   1.398       .  A
C1271      F1276   1.357       .  S
C1272      C1273   1.406       .  A
C1272      H1277   1.083       .  S
C1273      C1274   1.410       .  A
C1274      F1278   1.357       .  S
C1275      C1280   1.406       .  A
C1275      C1284   1.408       .  A
C1280      C1281   1.396       .  A
C1280      F1285   1.358       .  S
C1281      C1282   1.409       .  A
C1281      H1286   1.083       .  S
C1282      C1283   1.409       .  A
C1283      C1284   1.403       .  A
C1283      F1287   1.357       .  S
C1284      H1288   1.083       .  S
C1289      C1290   1.405       .  A
C1289      C1294   1.397       .  A
C1289      H1299   1.083       .  S
C1290      C1295   1.486       .  S
C1290      C1291   1.406       .  A
C1291      C1292   1.398       .  A
C1291      F1296   1.357       .  S
C1292      C1293   1.409       .  A
C1292      H1297   1.082       .  S
C1293      C1294   1.410       .  A
C1294      F1298   1.357       .  S
C1295      C1300   1.408       .  A
C1295      C1304   1.408       .  A
C1300      C1301   1.395       .  A
C1300      F1305   1.358       .  S
C1301      C1302   1.403       .  A
C1301      H1306   1.083       .  S
C1302      C1303   1.405       .  A
C1303      C1304   1.401       .  A
C1303      F1307   1.357       .  S
C1304      H1308   1.082       .  S
C1309      C1310   1.403       .  A
C1309      C1314   1.398       .  A
C1309      H1319   1.082       .  S
C1310      C1315   1.482       .  S
C1310      C1311   1.407       .  A
C1311      C1312   1.399       .  A
C1311      F1316   1.358       .  S
C1312      C1313   1.406       .  A
C1312      H1317   1.082       .  S
C1313      C1314   1.410       .  A
C1314      F1318   1.357       .  S
C1315      C1320   1.407       .  A
C1315      C1324   1.404       .  A
C1320      C1321   1.400       .  A
C1320      F1325   1.358       .  S
C1321      C1322   1.405       .  A
C1321      H1326   1.083       .  S
C1322      C1323   1.407       .  A
C1323      C1324   1.397       .  A
C1323      F1327   1.357       .  S
C1324      H1328   1.082       .  S
C1329      C1330   1.405       .  A
C1329      C1334   1.399       .  A
C1329      H1339   1.082       .  S
C1330      C1335   1.487       .  S
C1330      C1331   1.408       .  A
C1331      C1332   1.397       .  A
C1331      F1336   1.358       .  S
C1332      C1333   1.405       .  A
C1332      H1337   1.082       .  S
C1333      C1334   1.410       .  A
C1334      F1338   1.357       .  S
C1335      C1340   1.409       .  A
C1335      C1344   1.405       .  A
C1340      C1341   1.400       .  A
C1340      F1345   1.358       .  S
C1341      C1342   1.405       .  A
C1341      H1346   1.082       .  S
C1342      C1343   1.407       .  A
C1343      C1344   1.395       .  A
C1343      F1347   1.358       .  S
C1344      H1348   1.082       .  S
C1349      C1350   1.403       .  A
C1349      C1354   1.398       .  A
C1349      H1359   1.083       .  S
C1350      C1355   1.477       .  S
C1350      C1351   1.405       .  A
C1351      C1352   1.397       .  A
C1351      F1356   1.357       .  S
C1352      C1353   1.404       .  A
C1352      H1357   1.083       .  S
C1353      C1354   1.408       .  A
C1354      F1358   1.358       .  S
C1355      C1360   1.405       .  A
C1355      C1364   1.400       .  A
C1360      C1361   1.399       .  A
C1360      F1365   1.357       .  S
C1361      C1362   1.407       .  A
C1361      H1366   1.083       .  S
C1362      C1363   1.412       .  A
C1363      C1364   1.395       .  A
C1363      F1367   1.357       .  S
C1364      H1368   1.083       .  S
C1369      C1370   1.405       .  A
C1369      C1374   1.400       .  A
C1369      H1379   1.083       .  S
C1370      C1375   1.479       .  S
C1370      C1371   1.406       .  A
C1371      C1372   1.394       .  A
C1371      F1376   1.358       .  S
C1372      C1373   1.402       .  A
C1372      H1377   1.083       .  S
C1373      C1374   1.406       .  A
C1374      F1378   1.358       .  S
C1375      C1380   1.405       .  A
C1375      C1384   1.403       .  A
C1380      C1381   1.393       .  A
C1380      F1385   1.358       .  S
C1381      C1382   1.405       .  A
C1381      H1386   1.083       .  S
C1382      C1383   1.412       .  A
C1383      C1384   1.400       .  A
C1383      F1387   1.357       .  S
C1384      H1388   1.083       .  S
C1389      C1390   1.405       .  A
C1389      C1394   1.400       .  A
C1389      H1399   1.083       .  S
C1390      C1395   1.487       .  S
C1390      C1391   1.407       .  A
C1391      C1392   1.400       .  A
C1391      F1396   1.357       .  S
C1392      C1393   1.407       .  A
C1392      H1397   1.083       .  S
C1393      C1394   1.410       .  A
C1394      F1398   1.357       .  S
C1395      C1400   1.408       .  A
C1395      C1404   1.403       .  A
C1400      C1401   1.401       .  A
C1400      F1405   1.357       .  S
C1401      C1402   1.406       .  A
C1401      H1406   1.083       .  S
C1402      C1403   1.412       .  A
C1403      C1404   1.398       .  A
C1403      F1407   1.358       .  S
C1404      H1408   1.083       .  S
C1409      C1410   1.405       .  A
C1409      C1414   1.397       .  A
C1409      H1419   1.082       .  S
C1410      C1415   1.491       .  S
C1410      C1411   1.408       .  A
C1411      C1412   1.401       .  A
C1411      F1416   1.357       .  S
C1412      C1413   1.408       .  A
C1412      H1417   1.082       .  S
C1413      C1414   1.411       .  A
C1414      F1418   1.357       .  S
C1415      C1420   1.409       .  A
C1415      C1424   1.408       .  A
C1420      C1421   1.399       .  A
C1420      F1425   1.358       .  S
C1421      C1422   1.404       .  A
C1421      H1426   1.083       .  S
C1422      C1423   1.405       .  A
C1423      C1424   1.400       .  A
C1423      F1427   1.357       .  S
C1424      H1428   1.082       .  S
C1429      C1430   1.405       .  A
C1429      C1434   1.402       .  A
C1429      H1439   1.083       .  S
C1430      C1435   1.483       .  S
C1430      C1431   1.405       .  A
C1431      C1432   1.395       .  A
C1431      F1436   1.358       .  S
C1432      C1433   1.405       .  A
C1432      H1437   1.083       .  S
C1433      C1434   1.410       .  A
C1434      F1438   1.357       .  S
C1435      C1440   1.406       .  A
C1435      C1444   1.403       .  A
C1440      C1441   1.401       .  A
C1440      F1445   1.358       .  S
C1441      C1442   1.408       .  A
C1441      H1446   1.083       .  S
C1442      C1443   1.409       .  A
C1443      C1444   1.396       .  A
C1443      F1447   1.357       .  S
C1444      H1448   1.083       .  S
C1449      C1450   1.405       .  A
C1449      C1454   1.397       .  A
C1449      H1459   1.082       .  S
C1450      C1455   1.488       .  S
C1450      C1451   1.408       .  A
C1451      C1452   1.400       .  A
C1451      F1456   1.358       .  S
C1452      C1453   1.407       .  A
C1452      H1457   1.083       .  S
C1453      C1454   1.407       .  A
C1454      F1458   1.357       .  S
C1455      C1460   1.408       .  A
C1455      C1464   1.404       .  A
C1460      C1461   1.400       .  A
C1460      F1465   1.357       .  S
C1461      C1462   1.405       .  A
C1461      H1466   1.082       .  S
C1462      C1463   1.411       .  A
C1463      C1464   1.399       .  A
C1463      F1467   1.358       .  S
C1464      H1468   1.082       .  S
C1469      C1470   1.404       .  A
C1469      C1474   1.396       .  A
C1469      H1479   1.082       .  S
C1470      C1475   1.483       .  S
C1470      C1471   1.406       .  A
C1471      C1472   1.400       .  A
C1471      F1476   1.357       .  S
C1472      C1473   1.407       .  A
C1472      H1477   1.082       .  S
C1473      C1474   1.409       .  A
C1474      F1478   1.358       .  S
C1475      C1480   1.405       .  A
C1475      C1484   1.406       .  A
C1480      C1481   1.395       .  A
C1480      F1485   1.358       .  S
C1481      C1482   1.404       .  A
C1481      H1486   1.083       .  S
C1482      C1483   1.408       .  A
C1483      C1484   1.401       .  A
C1483      F1487   1.358       .  S
C1484      H1488   1.082       .  S
C1489      C1490   1.404       .  A
C1489      C1494   1.397       .  A
C1489      H1499   1.083       .  S
C1490      C1495   1.472       .  S
C1490      C1491   1.403       .  A
C1491      C1492   1.390       .  A
C1491      F1496   1.358       .  S
C1492      C1493   1.404       .  A
C1492      H1497   1.083       .  S
C1493      C1494   1.408       .  A
C1494      F1498   1.358       .  S
C1495      C1500   1.406       .  A
C1495      C1504   1.401       .  A
C1500      C1501   1.394       .  A
C1500      F1505   1.358       .  S
C1501      C1502   1.402       .  A
C1501      H1506   1.083       .  S
C1502      C1503   1.408       .  A
C1503      C1504   1.393       .  A
C1503      F1507   1.358       .  S
C1504      H1508   1.083       .  S
C1509      C1510   1.407       .  A
C1509      C1514   1.399       .  A
C1509      H1519   1.082       .  S
C1510      C1515   1.485       .  S
C1510      C1511   1.408       .  A
C1511      C1512   1.394       .  A
C1511      F1516   1.358       .  S
C1512      C1513   1.403       .  A
C1512      H1517   1.083       .  S
C1513      C1514   1.404       .  A
C1514      F1518   1.357       .  S
C1515      C1520   1.408       .  A
C1515      C1524   1.404       .  A
C1520      C1521   1.397       .  A
C1520      F1525   1.357       .  S
C1521      C1522   1.406       .  A
C1521      H1526   1.082       .  S
C1522      C1523   1.411       .  A
C1523      C1524   1.395       .  A
C1523      F1527   1.357       .  S
C1524      H1528   1.082       .  S
C1529      C1530   1.405       .  A
C1529      C1534   1.399       .  A
C1529      H1539   1.082       .  S
C1530      C1535   1.478       .  S
C1530      C1531   1.405       .  A
C1531      C1532   1.394       .  A
C1531      F1536   1.358       .  S
C1532      C1533   1.403       .  A
C1532      H1537   1.083       .  S
C1533      C1534   1.405       .  A
C1534      F1538   1.358       .  S
C1535      C1540   1.403       .  A
C1535      C1544   1.404       .  A
C1540      C1541   1.396       .  A
C1540      F1545   1.357       .  S
C1541      C1542   1.407       .  A
C1541      H1546   1.082       .  S
C1542      C1543   1.409       .  A
C1543      C1544   1.396       .  A
C1543      F1547   1.358       .  S
C1544      H1548   1.083       .  S
C1549      C1550   1.408       .  A
C1549      C1554   1.400       .  A
C1549      H1559   1.082       .  S
C1550      C1555   1.488       .  S
C1550      C1551   1.409       .  A
C1551      C1552   1.393       .  A
C1551      F1556   1.357       .  S
C1552      C1553   1.401       .  A
C1552      H1557   1.083       .  S
C1553      C1554   1.407       .  A
C1554      F1558   1.358       .  S
C1555      C1560   1.408       .  A
C1555      C1564   1.407       .  A
C1560      C1561   1.397       .  A
C1560      F1565   1.357       .  S
C1561      C1562   1.408       .  A
C1561      H1566   1.082       .  S
C1562      C1563   1.406       .  A
C1563      C1564   1.395       .  A
C1563      F1567   1.357       .  S
C1564      H1568   1.082       .  S
C1569      C1570   1.404       .  A
C1569      C1574   1.398       .  A
C1569      H1579   1.083       .  S
C1570      C1575   1.488       .  S
C1570      C1571   1.408       .  A
C1571      C1572   1.400       .  A
C1571      F1576   1.358       .  S
C1572      C1573   1.408       .  A
C1572      H1577   1.083       .  S
C1573      C1574   1.410       .  A
C1574      F1578   1.357       .  S
C1575      C1580   1.410       .  A
C1575      C1584   1.405       .  A
C1580      C1581   1.399       .  A
C1580      F1585   1.358       .  S
C1581      C1582   1.402       .  A
C1581      H1586   1.083       .  S
C1582      C1583   1.405       .  A
C1583      C1584   1.398       .  A
C1583      F1587   1.357       .  S
C1584      H1588   1.082       .  S
C1589      C1590   1.402       .  A
C1589      C1594   1.394       .  A
C1589      H1599   1.083       .  S
C1590      C1595   1.482       .  S
C1590      C1591   1.408       .  A
C1591      C1592   1.401       .  A
C1591      F1596   1.358       .  S
C1592      C1593   1.406       .  A
C1592      H1597   1.083       .  S
C1593      C1594   1.409       .  A
C1594      F1598   1.357       .  S
C1595      C1600   1.405       .  A
C1595      C1604   1.406       .  A
C1600      C1601   1.397       .  A
C1600      F1605   1.357       .  S
C1601      C1602   1.407       .  A
C1601      H1606   1.083       .  S
C1602      C1603   1.407       .  A
C1603      C1604   1.397       .  A
C1603      F1607   1.357       .  S
C1604      H1608   1.083       .  S
C1609      C1610   1.402       .  A
C1609      C1614   1.396       .  A
C1609      H1619   1.083       .  S
C1610      C1615   1.477       .  S
C1610      C1611   1.403       .  A
C1611      C1612   1.398       .  A
C1611      F1616   1.358       .  S
C1612      C1613   1.410       .  A
C1612      H1617   1.083       .  S
C1613      C1614   1.409       .  A
C1614      F1618   1.356       .  S
C1615      C1620   1.406       .  A
C1615      C1624   1.403       .  A
C1620      C1621   1.399       .  A
C1620      F1625   1.358       .  S
C1621      C1622   1.404       .  A
C1621      H1626   1.083       .  S
C1622      C1623   1.404       .  A
C1623      C1624   1.396       .  A
C1623      F1627   1.357       .  S
C1624      H1628   1.083       .  S
C1629      C1630   1.403       .  A
C1629      C1634   1.395       .  A
C1629      H1639   1.082       .  S
C1630      C1635   1.483       .  S
C1630      C1631   1.409       .  A
C1631      C1632   1.398       .  A
C1631      F1636   1.357       .  S
C1632      C1633   1.403       .  A
C1632      H1637   1.082       .  S
C1633      C1634   1.408       .  A
C1634      F1638   1.358       .  S
C1635      C1640   1.408       .  A
C1635      C1644   1.404       .  A
C1640      C1641   1.395       .  A
C1640      F1645   1.358       .  S
C1641      C1642   1.404       .  A
C1641      H1646   1.082       .  S
C1642      C1643   1.408       .  A
C1643      C1644   1.397       .  A
C1643      F1647   1.358       .  S
C1644      H1648   1.082       .  S
C1649      C1650   1.406       .  A
C1649      C1654   1.398       .  A
C1649      H1659   1.083       .  S
C1650      C1655   1.488       .  S
C1650      C1651   1.407       .  A
C1651      C1652   1.399       .  A
C1651      F1656   1.357       .  S
C1652      C1653   1.408       .  A
C1652      H1657   1.082       .  S
C1653      C1654   1.409       .  A
C1654      F1658   1.357       .  S
C1655      C1660   1.411       .  A
C1655      C1664   1.404       .  A
C1660      C1661   1.403       .  A
C1660      F1665   1.357       .  S
C1661      C1662   1.405       .  A
C1661      H1666   1.083       .  S
C1662      C1663   1.407       .  A
C1663      C1664   1.393       .  A
C1663      F1667   1.358       .  S
C1664      H1668   1.083       .  S
C1669      C1670   1.402       .  A
C1669      C1674   1.394       .  A
C1669      H1679   1.083       .  S
C1670      C1675   1.472       .  S
C1670      C1671   1.404       .  A
C1671      C1672   1.397       .  A
C1671      F1676   1.357       .  S
C1672      C1673   1.403       .  A
C1672      H1677   1.083       .  S
C1673      C1674   1.407       .  A
C1674      F1678   1.358       .  S
C1675      C1680   1.403       .  A
C1675      C1684   1.401       .  A
C1680      C1681   1.395       .  A
C1680      F1685   1.358       .  S
C1681      C1682   1.407       .  A
C1681      H1686   1.083       .  S
C1682      C1683   1.410       .  A
C1683      C1684   1.396       .  A
C1683      F1687   1.357       .  S
C1684      H1688   1.083       .  S
C1689      C1690   1.399       .  A
C1689      C1694   1.393       .  A
C1689      H1699   1.083       .  S
C1690      C1695   1.474       .  S
C1690      C1691   1.405       .  A
C1691      C1692   1.397       .  A
C1691      F1696   1.358       .  S
C1692      C1693   1.405       .  A
C1692      H1697   1.083       .  S
C1693      C1694   1.412       .  A
C1694      F1698   1.357       .  S
C1695      C1700   1.405       .  A
C1695      C1704   1.402       .  A
C1700      C1701   1.395       .  A
C1700      F1705   1.358       .  S
C1701      C1702   1.404       .  A
C1701      H1706   1.083       .  S
C1702      C1703   1.410       .  A
C1703      C1704   1.395       .  A
C1703      F1707   1.358       .  S
C1704      H1708   1.083       .  S
C1709      C1710   1.406       .  A
C1709      C1714   1.402       .  A
C1709      H1719   1.082       .  S
C1710      C1715   1.484       .  S
C1710      C1711   1.408       .  A
C1711      C1712   1.392       .  A
C1711      F1716   1.358       .  S
C1712      C1713   1.403       .  A
C1712      H1717   1.083       .  S
C1713      C1714   1.409       .  A
C1714      F1718   1.357       .  S
C1715      C1720   1.407       .  A
C1715      C1724   1.404       .  A
C1720      C1721   1.399       .  A
C1720      F1725   1.357       .  S
C1721      C1722   1.406       .  A
C1721      H1726   1.082       .  S
C1722      C1723   1.408       .  A
C1723      C1724   1.394       .  A
C1723      F1727   1.358       .  S
C1724      H1728   1.082       .  S
C1729      C1730   1.407       .  A
C1729      C1734   1.400       .  A
C1729      H1739   1.082       .  S
C1730      C1735   1.486       .  S
C1730      C1731   1.407       .  A
C1731      C1732   1.394       .  A
C1731      F1736   1.357       .  S
C1732      C1733   1.403       .  A
C1732      H1737   1.083       .  S
C1733      C1734   1.406       .  A
C1734      F1738   1.358       .  S
C1735      C1740   1.407       .  A
C1735      C1744   1.404       .  A
C1740      C1741   1.398       .  A
C1740      F1745   1.357       .  S
C1741      C1742   1.408       .  A
C1741      H1746   1.082       .  S
C1742      C1743   1.411       .  A
C1743      C1744   1.396       .  A
C1743      F1747   1.357       .  S
C1744      H1748   1.082       .  S
C1749      C1750   1.408       .  A
C1749      C1754   1.400       .  A
C1749      H1759   1.081       .  S
C1750      C1755   1.489       .  S
C1750      C1751   1.409       .  A
C1751      C1752   1.395       .  A
C1751      F1756   1.357       .  S
C1752      C1753   1.402       .  A
C1752      H1757   1.082       .  S
C1753      C1754   1.406       .  A
C1754      F1758   1.358       .  S
C1755      C1760   1.408       .  A
C1755      C1764   1.406       .  A
C1760      C1761   1.399       .  A
C1760      F1765   1.357       .  S
C1761      C1762   1.407       .  A
C1761      H1766   1.082       .  S
C1762      C1763   1.409       .  A
C1763      C1764   1.397       .  A
C1763      F1767   1.357       .  S
C1764      H1768   1.082       .  S
C1769      C1770   1.403       .  A
C1769      C1774   1.397       .  A
C1769      H1779   1.083       .  S
C1770      C1775   1.469       .  S
C1770      C1771   1.402       .  A
C1771      C1772   1.392       .  A
C1771      F1776   1.358       .  S
C1772      C1773   1.404       .  A
C1772      H1777   1.083       .  S
C1773      C1774   1.407       .  A
C1774      F1778   1.358       .  S
C1775      C1780   1.401       .  A
C1775      C1784   1.403       .  A
C1780      C1781   1.392       .  A
C1780      F1785   1.358       .  S
C1781      C1782   1.407       .  A
C1781      H1786   1.082       .  S
C1782      C1783   1.407       .  A
C1783      C1784   1.396       .  A
C1783      F1787   1.357       .  S
C1784      H1788   1.083       .  S
C1789      C1790   1.404       .  A
C1789      C1794   1.398       .  A
C1789      H1799   1.082       .  S
C1790      C1795   1.484       .  S
C1790      C1791   1.406       .  A
C1791      C1792   1.397       .  A
C1791      F1796   1.357       .  S
C1792      C1793   1.406       .  A
C1792      H1797   1.082       .  S
C1793      C1794   1.411       .  A
C1794      F1798   1.357       .  S
C1795      C1800   1.408       .  A
C1795      C1804   1.406       .  A
C1800      C1801   1.399       .  A
C1800      F1805   1.358       .  S
C1801      C1802   1.405       .  A
C1801      H1806   1.083       .  S
C1802      C1803   1.404       .  A
C1803      C1804   1.396       .  A
C1803      F1807   1.357       .  S
C1804      H1808   1.082       .  S
C1809      C1810   1.400       .  A
C1809      C1814   1.393       .  A
C1809      H1819   1.083       .  S
C1810      C1815   1.476       .  S
C1810      C1811   1.406       .  A
C1811      C1812   1.397       .  A
C1811      F1816   1.357       .  S
C1812      C1813   1.406       .  A
C1812      H1817   1.082       .  S
C1813      C1814   1.413       .  A
C1814      F1818   1.358       .  S
C1815      C1820   1.408       .  A
C1815      C1824   1.403       .  A
C1820      C1821   1.396       .  A
C1820      F1825   1.358       .  S
C1821      C1822   1.402       .  A
C1821      H1826   1.083       .  S
C1822      C1823   1.405       .  A
C1823      C1824   1.395       .  A
C1823      F1827   1.358       .  S
C1824      H1828   1.082       .  S
C1829      C1830   1.402       .  A
C1829      C1834   1.393       .  A
C1829      H1839   1.083       .  S
C1830      C1835   1.474       .  S
C1830      C1831   1.404       .  A
C1831      C1832   1.396       .  A
C1831      F1836   1.358       .  S
C1832      C1833   1.406       .  A
C1832      H1837   1.083       .  S
C1833      C1834   1.408       .  A
C1834      F1838   1.357       .  S
C1835      C1840   1.404       .  A
C1835      C1844   1.404       .  A
C1840      C1841   1.393       .  A
C1840      F1845   1.358       .  S
C1841      C1842   1.404       .  A
C1841      H1846   1.083       .  S
C1842      C1843   1.407       .  A
C1843      C1844   1.398       .  A
C1843      F1847   1.357       .  S
C1844      H1848   1.083       .  S
C1849      C1850   1.400       .  A
C1849      C1854   1.395       .  A
C1849      H1859   1.083       .  S
C1850      C1855   1.469       .  S
C1850      C1851   1.402       .  A
C1851      C1852   1.396       .  A
C1851      F1856   1.357       .  S
C1852      C1853   1.406       .  A
C1852      H1857   1.083       .  S
C1853      C1854   1.410       .  A
C1854      F1858   1.358       .  S
C1855      C1860   1.403       .  A
C1855      C1864   1.402       .  A
C1860      C1861   1.395       .  A
C1860      F1865   1.358       .  S
C1861      C1862   1.403       .  A
C1861      H1866   1.083       .  S
C1862      C1863   1.405       .  A
C1863      C1864   1.396       .  A
C1863      F1867   1.358       .  S
C1864      H1868   1.083       .  S
C1869      C1870   1.405       .  A
C1869      C1874   1.395       .  A
C1869      H1879   1.083       .  S
C1870      C1875   1.479       .  S
C1870      C1871   1.406       .  A
C1871      C1872   1.395       .  A
C1871      F1876   1.358       .  S
C1872      C1873   1.406       .  A
C1872      H1877   1.083       .  S
C1873      C1874   1.407       .  A
C1874      F1878   1.357       .  S
C1875      C1880   1.405       .  A
C1875      C1884   1.406       .  A
C1880      C1881   1.390       .  A
C1880      F1885   1.358       .  S
C1881      C1882   1.406       .  A
C1881      H1886   1.082       .  S
C1882      C1883   1.407       .  A
C1883      C1884   1.399       .  A
C1883      F1887   1.357       .  S
C1884      H1888   1.082       .  S
C1889      C1890   1.404       .  A
C1889      C1894   1.393       .  A
C1889      H1899   1.082       .  S
C1890      C1895   1.483       .  S
C1890      C1891   1.407       .  A
C1891      C1892   1.398       .  A
C1891      F1896   1.357       .  S
C1892      C1893   1.405       .  A
C1892      H1897   1.083       .  S
C1893      C1894   1.408       .  A
C1894      F1898   1.358       .  S
C1895      C1900   1.408       .  A
C1895      C1904   1.405       .  A
C1900      C1901   1.394       .  A
C1900      F1905   1.358       .  S
C1901      C1902   1.403       .  A
C1901      H1906   1.083       .  S
C1902      C1903   1.407       .  A
C1903      C1904   1.397       .  A
C1903      F1907   1.358       .  S
C1904      H1908   1.082       .  S
C1909      C1910   1.403       .  A
C1909      C1914   1.398       .  A
C1909      H1919   1.083       .  S
C1910      C1915   1.484       .  S
C1910      C1911   1.407       .  A
C1911      C1912   1.398       .  A
C1911      F1916   1.358       .  S
C1912      C1913   1.408       .  A
C1912      H1917   1.083       .  S
C1913      C1914   1.411       .  A
C1914      F1918   1.356       .  S
C1915      C1920   1.408       .  A
C1915      C1924   1.406       .  A
C1920      C1921   1.398       .  A
C1920      F1925   1.357       .  S
C1921      C1922   1.402       .  A
C1921      H1926   1.083       .  S
C1922      C1923   1.403       .  A
C1923      C1924   1.397       .  A
C1923      F1927   1.358       .  S
C1924      H1928   1.083       .  S
C1929      C1930   1.403       .  A
C1929      C1934   1.400       .  A
C1929      H1939   1.083       .  S
C1930      C1935   1.484       .  S
C1930      C1931   1.406       .  A
C1931      C1932   1.397       .  A
C1931      F1936   1.358       .  S
C1932      C1933   1.407       .  A
C1932      H1937   1.082       .  S
C1933      C1934   1.412       .  A
C1934      F1938   1.357       .  S
C1935      C1940   1.408       .  A
C1935      C1944   1.404       .  A
C1940      C1941   1.400       .  A
C1940      F1945   1.357       .  S
C1941      C1942   1.405       .  A
C1941      H1946   1.083       .  S
C1942      C1943   1.406       .  A
C1943      C1944   1.396       .  A
C1943      F1947   1.358       .  S
C1944      H1948   1.082       .  S
C1949      C1950   1.407       .  A
C1949      C1954   1.401       .  A
C1949      H1959   1.082       .  S
C1950      C1955   1.496       .  S
C1950      C1951   1.409       .  A
C1951      C1952   1.399       .  A
C1951      F1956   1.357       .  S
C1952      C1953   1.407       .  A
C1952      H1957   1.082       .  S
C1953      C1954   1.411       .  A
C1954      F1958   1.357       .  S
C1955      C1960   1.411       .  A
C1955      C1964   1.408       .  A
C1960      C1961   1.400       .  A
C1960      F1965   1.357       .  S
C1961      C1962   1.404       .  A
C1961      H1966   1.083       .  S
C1962      C1963   1.407       .  A
C1963      C1964   1.401       .  A
C1963      F1967   1.357       .  S
C1964      H1968   1.082       .  S
C1969      C1970   1.404       .  A
C1969      C1974   1.397       .  A
C1969      H1979   1.083       .  S
C1970      C1975   1.475       .  S
C1970      C1971   1.404       .  A
C1971      C1972   1.393       .  A
C1971      F1976   1.358       .  S
C1972      C1973   1.403       .  A
C1972      H1977   1.083       .  S
C1973      C1974   1.406       .  A
C1974      F1978   1.358       .  S
C1975      C1980   1.404       .  A
C1975      C1984   1.403       .  A
C1980      C1981   1.394       .  A
C1980      F1985   1.358       .  S
C1981      C1982   1.406       .  A
C1981      H1986   1.082       .  S
C1982      C1983   1.407       .  A
C1983      C1984   1.396       .  A
C1983      F1987   1.357       .  S
C1984      H1988   1.082       .  S
C1989      C1990   1.402       .  A
C1989      C1994   1.395       .  A
C1989      H1999   1.083       .  S
C1990      C1995   1.474       .  S
C1990      C1991   1.404       .  A
C1991      C1992   1.397       .  A
C1991      F1996   1.358       .  S
C1992      C1993   1.406       .  A
C1992      H1997   1.083       .  S
C1993      C1994   1.407       .  A
C1994      F1998   1.357       .  S
C1995      C2000   1.405       .  A
C1995      C2004   1.401       .  A
C2000      C2001   1.395       .  A
C2000      F2005   1.358       .  S
C2001      C2002   1.405       .  A
C2001      H2006   1.083       .  S
C2002      C2003   1.409       .  A
C2003      C2004   1.395       .  A
C2003      F2007   1.357       .  S
C2004      H2008   1.083       .  S
C2009      C2010   1.403       .  A
C2009      C2014   1.397       .  A
C2009      H2019   1.083       .  S
C2010      C2015   1.486       .  S
C2010      C2011   1.407       .  A
C2011      C2012   1.400       .  A
C2011      F2016   1.357       .  S
C2012      C2013   1.408       .  A
C2012      H2017   1.083       .  S
C2013      C2014   1.411       .  A
C2014      F2018   1.357       .  S
C2015      C2020   1.409       .  A
C2015      C2024   1.404       .  A
C2020      C2021   1.403       .  A
C2020      F2025   1.358       .  S
C2021      C2022   1.406       .  A
C2021      H2026   1.083       .  S
C2022      C2023   1.406       .  A
C2023      C2024   1.395       .  A
C2023      F2027   1.357       .  S
C2024      H2028   1.083       .  S
C2029      C2030   1.406       .  A
C2029      C2034   1.397       .  A
C2029      H2039   1.082       .  S
C2030      C2035   1.485       .  S
C2030      C2031   1.410       .  A
C2031      C2032   1.398       .  A
C2031      F2036   1.358       .  S
C2032      C2033   1.402       .  A
C2032      H2037   1.083       .  S
C2033      C2034   1.403       .  A
C2034      F2038   1.357       .  S
C2035      C2040   1.408       .  A
C2035      C2044   1.404       .  A
C2040      C2041   1.397       .  A
C2040      F2045   1.357       .  S
C2041      C2042   1.406       .  A
C2041      H2046   1.082       .  S
C2042      C2043   1.411       .  A
C2043      C2044   1.397       .  A
C2043      F2047   1.357       .  S
C2044      H2048   1.082       .  S
C2049      C2050   1.405       .  A
C2049      C2054   1.400       .  A
C2049      H2059   1.083       .  S
C2050      C2055   1.480       .  S
C2050      C2051   1.404       .  A
C2051      C2052   1.394       .  A
C2051      F2056   1.358       .  S
C2052      C2053   1.407       .  A
C2052      H2057   1.082       .  S
C2053      C2054   1.409       .  A
C2054      F2058   1.357       .  S
C2055      C2060   1.406       .  A
C2055      C2064   1.404       .  A
C2060      C2061   1.397       .  A
C2060      F2065   1.357       .  S
C2061      C2062   1.403       .  A
C2061      H2066   1.083       .  S
C2062      C2063   1.408       .  A
C2063      C2064   1.398       .  A
C2063      F2067   1.358       .  S
C2064      H2068   1.083       .  S
C2069      C2070   1.406       .  A
C2069      C2074   1.397       .  A
C2069      H2079   1.082       .  S
C2070      C2075   1.486       .  S
C2070      C2071   1.408       .  A
C2071      C2072   1.396       .  A
C2071      F2076   1.358       .  S
C2072      C2073   1.405       .  A
C2072      H2077   1.083       .  S
C2073      C2074   1.407       .  A
C2074      F2078   1.357       .  S
C2075      C2080   1.408       .  A
C2075      C2084   1.407       .  A
C2080      C2081   1.395       .  A
C2080      F2085   1.357       .  S
C2081      C2082   1.405       .  A
C2081      H2086   1.083       .  S
C2082      C2083   1.406       .  A
C2083      C2084   1.398       .  A
C2083      F2087   1.358       .  S
C2084      H2088   1.082       .  S
C2089      C2090   1.406       .  A
C2089      C2094   1.399       .  A
C2089      H2099   1.082       .  S
C2090      C2095   1.486       .  S
C2090      C2091   1.407       .  A
C2091      C2092   1.398       .  A
C2091      F2096   1.358       .  S
C2092      C2093   1.406       .  A
C2092      H2097   1.083       .  S
C2093      C2094   1.407       .  A
C2094      F2098   1.357       .  S
C2095      C2100   1.406       .  A
C2095      C2104   1.406       .  A
C2100      C2101   1.396       .  A
C2100      F2105   1.358       .  S
C2101      C2102   1.406       .  A
C2101      H2106   1.082       .  S
C2102      C2103   1.408       .  A
C2103      C2104   1.400       .  A
C2103      F2107   1.357       .  S
C2104      H2108   1.082       .  S
C2109      C2110   1.402       .  A
C2109      C2114   1.398       .  A
C2109      H2119   1.083       .  S
C2110      C2115   1.479       .  S
C2110      C2111   1.405       .  A
C2111      C2112   1.396       .  A
C2111      F2116   1.358       .  S
C2112      C2113   1.407       .  A
C2112      H2117   1.082       .  S
C2113      C2114   1.411       .  A
C2114      F2118   1.357       .  S
C2115      C2120   1.406       .  A
C2115      C2124   1.403       .  A
C2120      C2121   1.398       .  A
C2120      F2125   1.357       .  S
C2121      C2122   1.404       .  A
C2121      H2126   1.083       .  S
C2122      C2123   1.409       .  A
C2123      C2124   1.395       .  A
C2123      F2127   1.358       .  S
C2124      H2128   1.083       .  S
C2129      C2130   1.403       .  A
C2129      C2134   1.396       .  A
C2129      H2139   1.083       .  S
C2130      C2135   1.478       .  S
C2130      C2131   1.404       .  A
C2131      C2132   1.399       .  A
C2131      F2136   1.358       .  S
C2132      C2133   1.409       .  A
C2132      H2137   1.082       .  S
C2133      C2134   1.408       .  A
C2134      F2138   1.357       .  S
C2135      C2140   1.405       .  A
C2135      C2144   1.404       .  A
C2140      C2141   1.397       .  A
C2140      F2145   1.357       .  S
C2141      C2142   1.403       .  A
C2141      H2146   1.083       .  S
C2142      C2143   1.408       .  A
C2143      C2144   1.399       .  A
C2143      F2147   1.358       .  S
C2144      H2148   1.083       .  S
C2149      C2150   1.402       .  A
C2149      C2154   1.394       .  A
C2149      H2159   1.083       .  S
C2150      C2155   1.473       .  S
C2150      C2151   1.403       .  A
C2151      C2152   1.394       .  A
C2151      F2156   1.358       .  S
C2152      C2153   1.408       .  A
C2152      H2157   1.082       .  S
C2153      C2154   1.409       .  A
C2154      F2158   1.357       .  S
C2155      C2160   1.404       .  A
C2155      C2164   1.403       .  A
C2160      C2161   1.393       .  A
C2160      F2165   1.358       .  S
C2161      C2162   1.405       .  A
C2161      H2166   1.083       .  S
C2162      C2163   1.407       .  A
C2163      C2164   1.395       .  A
C2163      F2167   1.357       .  S
C2164      H2168   1.082       .  S
C2169      C2170   1.405       .  A
C2169      C2174   1.398       .  A
C2169      H2179   1.083       .  S
C2170      C2175   1.484       .  S
C2170      C2171   1.406       .  A
C2171      C2172   1.396       .  A
C2171      F2176   1.357       .  S
C2172      C2173   1.407       .  A
C2172      H2177   1.082       .  S
C2173      C2174   1.410       .  A
C2174      F2178   1.357       .  S
C2175      C2180   1.409       .  A
C2175      C2184   1.405       .  A
C2180      C2181   1.397       .  A
C2180      F2185   1.357       .  S
C2181      C2182   1.403       .  A
C2181      H2186   1.083       .  S
C2182      C2183   1.406       .  A
C2183      C2184   1.395       .  A
C2183      F2187   1.358       .  S
C2184      H2188   1.083       .  S
C2189      C2190   1.402       .  A
C2189      C2194   1.393       .  A
C2189      H2199   1.083       .  S
C2190      C2195   1.479       .  S
C2190      C2191   1.407       .  A
C2191      C2192   1.400       .  A
C2191      F2196   1.357       .  S
C2192      C2193   1.406       .  A
C2192      H2197   1.082       .  S
C2193      C2194   1.409       .  A
C2194      F2198   1.358       .  S
C2195      C2200   1.405       .  A
C2195      C2204   1.404       .  A
C2200      C2201   1.394       .  A
C2200      F2205   1.358       .  S
C2201      C2202   1.405       .  A
C2201      H2206   1.082       .  S
C2202      C2203   1.410       .  A
C2203      C2204   1.399       .  A
C2203      F2207   1.358       .  S
C2204      H2208   1.083       .  S
C2209      C2210   1.403       .  A
C2209      C2214   1.394       .  A
C2209      H2219   1.083       .  S
C2210      C2215   1.480       .  S
C2210      C2211   1.407       .  A
C2211      C2212   1.397       .  A
C2211      F2216   1.357       .  S
C2212      C2213   1.404       .  A
C2212      H2217   1.083       .  S
C2213      C2214   1.408       .  A
C2214      F2218   1.358       .  S
C2215      C2220   1.406       .  A
C2215      C2224   1.405       .  A
C2220      C2221   1.393       .  A
C2220      F2225   1.358       .  S
C2221      C2222   1.405       .  A
C2221      H2226   1.083       .  S
C2222      C2223   1.407       .  A
C2223      C2224   1.397       .  A
C2223      F2227   1.357       .  S
C2224      H2228   1.083       .  S
C2229      C2230   1.406       .  A
C2229      C2234   1.398       .  A
C2229      H2239   1.082       .  S
C2230      C2235   1.486       .  S
C2230      C2231   1.409       .  A
C2231      C2232   1.395       .  A
C2231      F2236   1.357       .  S
C2232      C2233   1.402       .  A
C2232      H2237   1.083       .  S
C2233      C2234   1.407       .  A
C2234      F2238   1.358       .  S
C2235      C2240   1.410       .  A
C2235      C2244   1.403       .  A
C2240      C2241   1.400       .  A
C2240      F2245   1.357       .  S
C2241      C2242   1.406       .  A
C2241      H2246   1.082       .  S
C2242      C2243   1.410       .  A
C2243      C2244   1.393       .  A
C2243      F2247   1.357       .  S
C2244      H2248   1.082       .  S
C2249      C2250   1.404       .  A
C2249      C2254   1.399       .  A
C2249      H2259   1.083       .  S
C2250      C2255   1.477       .  S
C2250      C2251   1.403       .  A
C2251      C2252   1.394       .  A
C2251      F2256   1.358       .  S
C2252      C2253   1.407       .  A
C2252      H2257   1.082       .  S
C2253      C2254   1.408       .  A
C2254      F2258   1.357       .  S
C2255      C2260   1.404       .  A
C2255      C2264   1.403       .  A
C2260      C2261   1.397       .  A
C2260      F2265   1.358       .  S
C2261      C2262   1.405       .  A
C2261      H2266   1.083       .  S
C2262      C2263   1.408       .  A
C2263      C2264   1.397       .  A
C2263      F2267   1.358       .  S
C2264      H2268   1.083       .  S
C2269      C2270   1.404       .  A
C2269      C2274   1.398       .  A
C2269      H2279   1.082       .  S
C2270      C2275   1.485       .  S
C2270      C2271   1.408       .  A
C2271      C2272   1.397       .  A
C2271      F2276   1.358       .  S
C2272      C2273   1.405       .  A
C2272      H2277   1.082       .  S
C2273      C2274   1.410       .  A
C2274      F2278   1.357       .  S
C2275      C2280   1.409       .  A
C2275      C2284   1.405       .  A
C2280      C2281   1.398       .  A
C2280      F2285   1.358       .  S
C2281      C2282   1.404       .  A
C2281      H2286   1.083       .  S
C2282      C2283   1.406       .  A
C2283      C2284   1.397       .  A
C2283      F2287   1.357       .  S
C2284      H2288   1.082       .  S
C2289      C2290   1.404       .  A
C2289      C2294   1.399       .  A
C2289      H2299   1.083       .  S
C2290      C2295   1.480       .  S
C2290      C2291   1.407       .  A
C2291      C2292   1.397       .  A
C2291      F2296   1.357       .  S
C2292      C2293   1.403       .  A
C2292      H2297   1.083       .  S
C2293      C2294   1.408       .  A
C2294      F2298   1.358       .  S
C2295      C2300   1.405       .  A
C2295      C2304   1.403       .  A
C2300      C2301   1.396       .  A
C2300      F2305   1.357       .  S
C2301      C2302   1.407       .  A
C2301      H2306   1.083       .  S
C2302      C2303   1.410       .  A
C2303      C2304   1.398       .  A
C2303      F2307   1.357       .  S
C2304      H2308   1.083       .  S
C2309      C2310   1.406       .  A
C2309      C2314   1.399       .  A
C2309      H2319   1.082       .  S
C2310      C2315   1.486       .  S
C2310      C2311   1.409       .  A
C2311      C2312   1.396       .  A
C2311      F2316   1.358       .  S
C2312      C2313   1.403       .  A
C2312      H2317   1.083       .  S
C2313      C2314   1.408       .  A
C2314      F2318   1.357       .  S
C2315      C2320   1.408       .  A
C2315      C2324   1.405       .  A
C2320      C2321   1.398       .  A
C2320      F2325   1.357       .  S
C2321      C2322   1.405       .  A
C2321      H2326   1.083       .  S
C2322      C2323   1.407       .  A
C2323      C2324   1.395       .  A
C2323      F2327   1.358       .  S
C2324      H2328   1.082       .  S
C2329      C2330   1.404       .  A
C2329      C2334   1.399       .  A
C2329      H2339   1.082       .  S
C2330      C2335   1.483       .  S
C2330      C2331   1.406       .  A
C2331      C2332   1.397       .  A
C2331      F2336   1.357       .  S
C2332      C2333   1.405       .  A
C2332      H2337   1.082       .  S
C2333      C2334   1.409       .  A
C2334      F2338   1.358       .  S
C2335      C2340   1.407       .  A
C2335      C2344   1.404       .  A
C2340      C2341   1.399       .  A
C2340      F2345   1.357       .  S
C2341      C2342   1.404       .  A
C2341      H2346   1.082       .  S
C2342      C2343   1.408       .  A
C2343      C2344   1.397       .  A
C2343      F2347   1.358       .  S
C2344      H2348   1.082       .  S
C2349      C2350   1.407       .  A
C2349      C2354   1.400       .  A
C2349      H2359   1.082       .  S
C2350      C2355   1.491       .  S
C2350      C2351   1.409       .  A
C2351      C2352   1.396       .  A
C2351      F2356   1.357       .  S
C2352      C2353   1.405       .  A
C2352      H2357   1.082       .  S
C2353      C2354   1.409       .  A
C2354      F2358   1.357       .  S
C2355      C2360   1.410       .  A
C2355      C2364   1.407       .  A
C2360      C2361   1.399       .  A
C2360      F2365   1.357       .  S
C2361      C2362   1.404       .  A
C2361      H2366   1.083       .  S
C2362      C2363   1.407       .  A
C2363      C2364   1.398       .  A
C2363      F2367   1.358       .  S
C2364      H2368   1.082       .  S
C2369      C2370   1.402       .  A
C2369      C2374   1.401       .  A
C2369      H2379   1.083       .  S
C2370      C2375   1.478       .  S
C2370      C2371   1.403       .  A
C2371      C2372   1.397       .  A
C2371      F2376   1.357       .  S
C2372      C2373   1.406       .  A
C2372      H2377   1.082       .  S
C2373      C2374   1.413       .  A
C2374      F2378   1.357       .  S
C2375      C2380   1.405       .  A
C2375      C2384   1.402       .  A
C2380      C2381   1.402       .  A
C2380      F2385   1.357       .  S
C2381      C2382   1.406       .  A
C2381      H2386   1.083       .  S
C2382      C2383   1.407       .  A
C2383      C2384   1.397       .  A
C2383      F2387   1.357       .  S
C2384      H2388   1.083       .  S
C2389      C2390   1.406       .  A
C2389      C2394   1.398       .  A
C2389      H2399   1.083       .  S
C2390      C2395   1.491       .  S
C2390      C2391   1.409       .  A
C2391      C2392   1.399       .  A
C2391      F2396   1.357       .  S
C2392      C2393   1.407       .  A
C2392      H2397   1.083       .  S
C2393      C2394   1.410       .  A
C2394      F2398   1.357       .  S
C2395      C2400   1.410       .  A
C2395      C2404   1.406       .  A
C2400      C2401   1.402       .  A
C2400      F2405   1.357       .  S
C2401      C2402   1.406       .  A
C2401      H2406   1.083       .  S
C2402      C2403   1.408       .  A
C2403      C2404   1.396       .  A
C2403      F2407   1.358       .  S
C2404      H2408   1.083       .  S
C2409      C2410   1.403       .  A
C2409      C2414   1.398       .  A
C2409      H2419   1.083       .  S
C2410      C2415   1.481       .  S
C2410      C2411   1.404       .  A
C2411      C2412   1.399       .  A
C2411      F2416   1.358       .  S
C2412      C2413   1.410       .  A
C2412      H2417   1.083       .  S
C2413      C2414   1.409       .  A
C2414      F2418   1.357       .  S
C2415      C2420   1.407       .  A
C2415      C2424   1.403       .  A
C2420      C2421   1.400       .  A
C2420      F2425   1.357       .  S
C2421      C2422   1.405       .  A
C2421      H2426   1.083       .  S
C2422      C2423   1.406       .  A
C2423      C2424   1.396       .  A
C2423      F2427   1.358       .  S
C2424      H2428   1.083       .  S
C2429      C2430   1.405       .  A
C2429      C2434   1.399       .  A
C2429      H2439   1.083       .  S
C2430      C2435   1.491       .  S
C2430      C2431   1.410       .  A
C2431      C2432   1.403       .  A
C2431      F2436   1.357       .  S
C2432      C2433   1.405       .  A
C2432      H2437   1.083       .  S
C2433      C2434   1.408       .  A
C2434      F2438   1.357       .  S
C2435      C2440   1.409       .  A
C2435      C2444   1.405       .  A
C2440      C2441   1.401       .  A
C2440      F2445   1.358       .  S
C2441      C2442   1.407       .  A
C2441      H2446   1.083       .  S
C2442      C2443   1.411       .  A
C2443      C2444   1.401       .  A
C2443      F2447   1.357       .  S
C2444      H2448   1.083       .  S
