geometry optimzed in LAMMPS
_audit_creation_date              2020-12-01 
_audit_creation_method            'lammps2cif' 
_symmetry_space_group_name_H-M    'P1' 
_symmetry_Int_Tables_number       1 
_symmetry_cell_setting            triclinic 
loop_ 
_symmetry_equiv_pos_as_xyz 
  x,y,z 
_cell_length_a                    47.15632338 
_cell_length_b                    47.083449038056585 
_cell_length_c                    34.901737453887044 
_cell_angle_alpha                 90.03592752023502 
_cell_angle_beta                  89.9769213412175 
_cell_angle_gamma                 120.3756112759327 
loop_ 
_atom_site_label 
_atom_site_type_symbol 
_atom_site_fract_x 
_atom_site_fract_y 
_atom_site_fract_z 
_atom_site_charge 
Zn1        Zn  0.38173481  0.19041529  0.02872543     1.49700
Zn2        Zn  0.45997253  0.23013409  0.03480721     1.49400
Zn3        Zn  0.42559845  0.17836868  0.96815505     1.49100
Zn4        Zn  0.42521097  0.24567467  0.96619602     1.49500
O5          O  0.42296751  0.21122443  0.99947660    -1.83600
O6          O  0.39082569  0.19357447  0.08552490    -0.74200
O7          O  0.48882463  0.21078825  0.02687884    -0.74100
O8          O  0.38780449  0.13390477  0.97983474    -0.73600
O9          O  0.44531342  0.22247940  0.08966704    -0.74300
O10         O  0.35419390  0.14170190  0.01669758    -0.73900
O11         O  0.46713087  0.17714291  0.97749854    -0.74400
O12         O  0.42161392  0.23253182  0.91033899    -0.73800
O13         O  0.48951618  0.27830859  0.02512362    -0.74600
O14         O  0.42306956  0.18612411  0.91204661    -0.74000
O15         O  0.46837047  0.28861868  0.97365431    -0.74400
O16         O  0.38764129  0.25316777  0.97805569    -0.74400
O17         O  0.35601652  0.21343753  0.01901373    -0.74100
C18         C  0.41711131  0.20682768  0.10531106     0.77600
C19         C  0.48956393  0.19101291  0.00268978     0.78100
C20         C  0.36094930  0.12253291  0.99810043     0.77100
C21         C  0.42109595  0.20827794  0.89342267     0.77500
C22         C  0.49105363  0.29759064  0.99863686     0.78600
C23         C  0.36205045  0.23852991  0.99903644     0.77700
Zn24       Zn  0.38526501  0.18828713  0.47069097     1.49700
Zn25       Zn  0.43183355  0.17960181  0.53108521     1.49400
Zn26       Zn  0.46288136  0.22971290  0.46203674     1.49100
Zn27       Zn  0.42895571  0.24531759  0.53131776     1.49500
O28         O  0.42699174  0.21063374  0.49882010    -1.83600
O29         O  0.36056527  0.13966871  0.48269218    -0.74200
O30         O  0.47541323  0.18217312  0.52198725    -0.74100
O31         O  0.44719288  0.22248856  0.40774846    -0.73600
O32         O  0.39524115  0.13383797  0.52050406    -0.74300
O33         O  0.39288025  0.19315914  0.41344586    -0.73900
O34         O  0.49382889  0.21288477  0.46951594    -0.74400
O35         O  0.46978481  0.28900054  0.52092666    -0.73800
O36         O  0.42932242  0.18822316  0.58714137    -0.74600
O37         O  0.49055226  0.27808023  0.46982326    -0.74000
O38         O  0.42826535  0.23487914  0.58756136    -0.74400
O39         O  0.39052275  0.25090860  0.52005031    -0.74400
O40         O  0.35762507  0.20905508  0.48201686    -0.74100
C41         C  0.36826438  0.12165314  0.50217392     0.77600
C42         C  0.49709694  0.19622458  0.49598904     0.78100
C43         C  0.41866084  0.20800696  0.39291472     0.77100
C44         C  0.49142968  0.29820954  0.49472706     0.77500
C45         C  0.42855877  0.21133332  0.60513277     0.78600
C46         C  0.36436443  0.23514810  0.50034011     0.77700
Zn47       Zn  0.23248162  0.77349982  0.96976773     1.49700
Zn48       Zn  0.24812202  0.82425085  0.03721597     1.49400
Zn49       Zn  0.19209837  0.81117346  0.97524568     1.49100
Zn50       Zn  0.17997428  0.75561544  0.03602005     1.49500
O51         O  0.21313506  0.79122482  0.00460772    -1.83600
O52         O  0.28026322  0.79092581  0.98154379    -0.74200
O53         O  0.25289035  0.86854098  0.02840563    -0.74100
O54         O  0.20035407  0.81040331  0.91838977    -0.73600
O55         O  0.29205601  0.82689724  0.02863100    -0.74300
O56         O  0.22813249  0.78406556  0.91523577    -0.73900
O57         O  0.21071722  0.85841904  0.99082893    -0.74400
O58         O  0.13498503  0.74842107  0.02483264    -0.73800
O59         O  0.23634509  0.81384584  0.09291505    -0.74600
O60         O  0.14274029  0.78733367  0.98334850    -0.74000
O61         O  0.18887716  0.76662421  0.09201620    -0.74400
O62         O  0.17844259  0.71254325  0.02568911    -0.74400
O63         O  0.21103740  0.72458521  0.97517173    -0.74100
C64         C  0.30043807  0.81131146  0.00577802     0.77600
C65         C  0.23533061  0.87804624  0.01120947     0.78100
C66         C  0.21502007  0.79873690  0.89890106     0.77100
C67         C  0.12367421  0.76239302  0.00367240     0.77500
C68         C  0.21195743  0.79050022  0.11032670     0.78600
C69         C  0.19129462  0.70387680  0.99940139     0.77700
Zn70       Zn  0.25152053  0.82106239  0.53776820     1.49700
Zn71       Zn  0.19639013  0.80685241  0.47456881     1.49400
Zn72       Zn  0.23777902  0.77021934  0.47124063     1.49100
Zn73       Zn  0.18486410  0.75239763  0.53699173     1.49500
O74         O  0.21753369  0.78769852  0.50504775    -1.83600
O75         O  0.25893061  0.86518405  0.52347713    -0.74200
O76         O  0.20127983  0.80095309  0.41810206    -0.74100
O77         O  0.28600607  0.79057064  0.48183844    -0.73600
O78         O  0.21811273  0.85597937  0.48389399    -0.74300
O79         O  0.29500331  0.82277011  0.53228192    -0.73900
O80         O  0.23079288  0.77638080  0.41595843    -0.74400
O81         O  0.18680045  0.71065450  0.53115161    -0.73800
O82         O  0.14732795  0.78367413  0.48470442    -0.74600
O83         O  0.21939441  0.72219363  0.48044239    -0.74000
O84         O  0.13957983  0.74227203  0.52221828    -0.74400
O85         O  0.19124630  0.76578928  0.59259596    -0.74400
O86         O  0.23793900  0.81357008  0.59318618    -0.74100
C87         C  0.24370535  0.87552575  0.50301334     0.77600
C88         C  0.21538101  0.78845335  0.39909796     0.78100
C89         C  0.30499234  0.80976499  0.50777984     0.77100
C90         C  0.20105332  0.70237375  0.50626118     0.77500
C91         C  0.12825432  0.75717044  0.50266732     0.78600
C92         C  0.21334927  0.79058223  0.61073975     0.77700
Zn93       Zn  0.76954462  0.54396754  0.03240443     1.49700
Zn94       Zn  0.75611250  0.57995870  0.96528916     1.49400
Zn95       Zn  0.80868012  0.62293779  0.03064920     1.49100
Zn96       Zn  0.82514279  0.58198169  0.97009698     1.49500
O97         O  0.79007664  0.58251654  0.99956422    -1.83600
O98         O  0.72103930  0.51573067  0.02312467    -0.74200
O99         O  0.74818488  0.61718640  0.97624884    -0.74100
O100        O  0.80482914  0.61123176  0.08707398    -0.73600
O101        O  0.71221657  0.53774098  0.97184653    -0.74300
O102        O  0.77709461  0.55650254  0.08750853    -0.73900
O103        O  0.78357949  0.64709223  0.02167120    -0.74400
O104        O  0.86900159  0.62171819  0.98285194    -0.73800
O105        O  0.76985535  0.58251768  0.91034121    -0.74600
O106        O  0.85757081  0.65324688  0.01954181    -0.74000
O107        O  0.81738646  0.58371200  0.91367947    -0.74400
O108        O  0.82731160  0.54044349  0.97944669    -0.74400
O109        O  0.78813806  0.51493786  0.02270154    -0.74100
C110        C  0.70189323  0.51515358  0.99706482     0.77600
C111        C  0.75986521  0.64144357  0.99928873     0.78100
C112        C  0.79184897  0.58391932  0.10503054     0.77100
C113        C  0.87823045  0.64819246  0.00168118     0.77500
C114        C  0.79452398  0.58348394  0.89408194     0.78600
C115        C  0.81020868  0.51577329  0.00112258     0.77700
Zn116      Zn  0.82286900  0.57349214  0.46542916     1.49700
Zn117      Zn  0.77292124  0.53930668  0.53310248     1.49400
Zn118      Zn  0.81410505  0.61775130  0.52979103     1.49100
Zn119      Zn  0.75667153  0.57614738  0.46853329     1.49500
O120        O  0.79181993  0.57706600  0.49918508    -1.83600
O121        O  0.82282564  0.53087625  0.47272032    -0.74200
O122        O  0.77972574  0.55239422  0.58799018    -0.74100
O123        O  0.86339324  0.64231668  0.51921163    -0.73600
O124        O  0.79026607  0.50918236  0.52312278    -0.74300
O125        O  0.86830738  0.61043742  0.47586308    -0.73900
O126        O  0.80763655  0.60697865  0.58655996    -0.74400
O127        O  0.75307398  0.61582517  0.48010585    -0.73800
O128        O  0.72492706  0.51174005  0.52507778    -0.74600
O129        O  0.79470482  0.64711059  0.51880924    -0.74000
O130        O  0.71237887  0.53541619  0.47880424    -0.74400
O131        O  0.76645615  0.57766155  0.41216751    -0.74400
O132        O  0.81270759  0.57614758  0.41009319    -0.74100
C133        C  0.80862440  0.50798108  0.49733885     0.77600
C134        C  0.79334935  0.57995747  0.60512691     0.78100
C135        C  0.88099404  0.63589822  0.49706561     0.77100
C136        C  0.76964676  0.64215051  0.49944498     0.77500
C137        C  0.70389669  0.51212126  0.50284303     0.78600
C138        C  0.78958453  0.57772781  0.39330594     0.77700
Zn139      Zn  0.54407041  0.78142858  0.96903235     1.49700
Zn140      Zn  0.58063377  0.83030690  0.03789484     1.49400
Zn141      Zn  0.57583561  0.76048029  0.03611439     1.49100
Zn142      Zn  0.62239585  0.81586130  0.97583711     1.49500
O143        O  0.58090247  0.79707930  0.00462641    -1.83600
O144        O  0.51750201  0.80352700  0.97794091    -0.74200
O145        O  0.58059283  0.81929197  0.09346405    -0.74100
O146        O  0.53436038  0.71837186  0.02295122    -0.73600
O147        O  0.54052542  0.83455343  0.02935867    -0.74300
O148        O  0.51272132  0.73312928  0.97626249    -0.73900
O149        O  0.57418587  0.76921490  0.09224559    -0.74400
O150        O  0.64821431  0.79345484  0.99013148    -0.73800
O151        O  0.62050016  0.87425808  0.02781006    -0.74600
O152        O  0.61406416  0.75345845  0.02902975    -0.74000
O153        O  0.65014159  0.86493575  0.98553558    -0.74400
O154        O  0.61357856  0.80980645  0.91866802    -0.74400
O155        O  0.55942089  0.78795139  0.91439408    -0.74100
C156        C  0.51822955  0.82299312  0.00377093     0.77600
C157        C  0.57686743  0.79379420  0.11063228     0.78100
C158        C  0.51164623  0.71128371  0.99856893     0.77100
C159        C  0.64119092  0.76849698  0.01101543     0.77500
C160        C  0.64586471  0.88450703  0.00677418     0.78600
C161        C  0.58745759  0.79897967  0.89877046     0.77700
Zn162      Zn  0.57906063  0.75236507  0.53479408     1.49700
Zn163      Zn  0.54348927  0.77218900  0.47123260     1.49400
Zn164      Zn  0.58264909  0.82194564  0.53846300     1.49100
Zn165      Zn  0.62214154  0.80899352  0.47320393     1.49500
O166        O  0.58191813  0.78875623  0.50440243    -1.83600
O167        O  0.53688004  0.70930373  0.52377983    -0.74200
O168        O  0.51641370  0.79292022  0.48354751    -0.74100
O169        O  0.58657443  0.81182234  0.59330629    -0.73600
O170        O  0.51315461  0.72380287  0.47902040    -0.74300
O171        O  0.58103191  0.76208849  0.59176110    -0.73900
O172        O  0.54144283  0.82455957  0.53397094    -0.74400
O173        O  0.64981362  0.85819491  0.48260228    -0.73800
O174        O  0.55634244  0.77962683  0.41573586    -0.74600
O175        O  0.62063241  0.86664865  0.52612210    -0.74000
O176        O  0.61080151  0.80357158  0.41695418    -0.74400
O177        O  0.64907848  0.78721100  0.48329626    -0.74400
O178        O  0.61749190  0.74638578  0.52262869    -0.74100
C179        C  0.51311094  0.70223973  0.50095728     0.77600
C180        C  0.51768128  0.81188194  0.51031206     0.78100
C181        C  0.58501132  0.78717185  0.61033531     0.77100
C182        C  0.64541487  0.87756904  0.50403797     0.77500
C183        C  0.58385656  0.79166727  0.39855468     0.78600
C184        C  0.64361668  0.76201523  0.50268293     0.77700
Zn185      Zn  0.77457396  0.23839588  0.95983966     1.49700
Zn186      Zn  0.75714106  0.18593369  0.02568959     1.49400
Zn187      Zn  0.81232945  0.19788159  0.96383238     1.49100
Zn188      Zn  0.82616707  0.25347883  0.02616973     1.49500
O189        O  0.79264010  0.21883506  0.99387866    -1.83600
O190        O  0.72616613  0.21939814  0.96812486    -0.74200
O191        O  0.75012544  0.14096390  0.01541671    -0.74100
O192        O  0.80824913  0.20391479  0.90713486    -0.73600
O193        O  0.71412373  0.18395819  0.01565171    -0.74300
O194        O  0.78175989  0.23158823  0.90506535    -0.73900
O195        O  0.78954763  0.14891376  0.97429564    -0.74400
O196        O  0.87007652  0.25744882  0.01712243    -0.73800
O197        O  0.76770986  0.19582897  0.08155542    -0.74600
O198        O  0.86077607  0.21819856  0.97552898    -0.74000
O199        O  0.81513826  0.24293850  0.08179532    -0.74400
O200        O  0.83088874  0.29803458  0.01601883    -0.74400
O201        O  0.79561574  0.28693095  0.96862061    -0.74100
C202        C  0.70552628  0.19843646  0.99156180     0.77600
C203        C  0.76490664  0.13000314  0.99508321     0.78100
C204        C  0.79561392  0.21791307  0.88817346     0.77100
C205        C  0.88045346  0.24209147  0.99677232     0.77500
C206        C  0.79134204  0.21932586  0.09963796     0.78600
C207        C  0.81710020  0.30732650  0.99171492     0.77700
Zn208      Zn  0.81502117  0.19276281  0.46300408     1.49700
Zn209      Zn  0.77489264  0.23091821  0.45993310     1.49400
Zn210      Zn  0.75979723  0.17920076  0.52616332     1.49100
Zn211      Zn  0.82739191  0.24777234  0.52534999     1.49500
O212        O  0.79433128  0.21247262  0.49360730    -1.83600
O213        O  0.81223015  0.20073136  0.40648145    -0.74200
O214        O  0.72653307  0.21086705  0.46878303    -0.74100
O215        O  0.75236085  0.13430232  0.51297946    -0.73600
O216        O  0.78243413  0.22499491  0.40529644    -0.74300
O217        O  0.79176773  0.14331604  0.47119305    -0.73900
O218        O  0.71671649  0.17811676  0.51883289    -0.74400
O219        O  0.81737234  0.23742081  0.58093165    -0.73800
O220        O  0.79477788  0.27941281  0.46805478    -0.74600
O221        O  0.77204346  0.18834725  0.58217153    -0.74000
O222        O  0.83116321  0.29164183  0.51459381    -0.74400
O223        O  0.87160033  0.25291271  0.51666047    -0.74400
O224        O  0.86340075  0.21322409  0.47599226    -0.74100
C225        C  0.79810726  0.21342334  0.38795888     0.77600
C226        C  0.70717319  0.19151550  0.49431627     0.78100
C227        C  0.76694475  0.12381877  0.49144900     0.77100
C228        C  0.79545371  0.21286228  0.59943846     0.77500
C229        C  0.81673727  0.30024363  0.49040015     0.78600
C230        C  0.88244922  0.23764194  0.49704980     0.77700
Zn231      Zn  0.23097787  0.46107892  0.03640252     1.49700
Zn232      Zn  0.18372817  0.42985433  0.96519364     1.49400
Zn233      Zn  0.25115680  0.43019350  0.96851459     1.49100
Zn234      Zn  0.19300587  0.38287569  0.02541451     1.49500
O235        O  0.21448497  0.42570044  0.99891884    -1.83600
O236        O  0.21227007  0.49024632  0.02817419    -0.74200
O237        O  0.19581357  0.43025805  0.90959113    -0.74100
O238        O  0.29277468  0.47266165  0.97985233    -0.73600
O239        O  0.18217490  0.47160242  0.97548026    -0.74300
O240        O  0.27945617  0.49154468  0.03084682    -0.73900
O241        O  0.24246682  0.42942670  0.91199307    -0.74400
O242        O  0.21726698  0.35786104  0.01572419    -0.73800
O243        O  0.13873943  0.39088118  0.97275790    -0.74600
O244        O  0.25942574  0.39354578  0.98032949    -0.74000
O245        O  0.14484460  0.35599796  0.00968184    -0.74400
O246        O  0.19434887  0.38956431  0.08306107    -0.74400
O247        O  0.22090063  0.44394105  0.09000525    -0.74100
C248        C  0.19498242  0.49292527  0.00213329     0.77600
C249        C  0.21981674  0.43014696  0.89298833     0.78100
C250        C  0.30039355  0.49409245  0.00605268     0.77100
C251        C  0.24446152  0.36661628  0.99876645     0.77500
C252        C  0.12667789  0.36324247  0.98968709     0.78600
C253        C  0.20619274  0.41513317  0.10420510     0.77700
Zn254      Zn  0.25267380  0.42036759  0.52994377     1.49700
Zn255      Zn  0.19486155  0.37797635  0.46986074     1.49400
Zn256      Zn  0.18775299  0.42508759  0.53093584     1.49100
Zn257      Zn  0.23779340  0.45658965  0.46196546     1.49500
O258        O  0.21829215  0.41985618  0.49809848    -1.83600
O259        O  0.25565126  0.37989023  0.51996833    -0.74200
O260        O  0.14603289  0.35388582  0.48217193    -0.74100
O261        O  0.19713589  0.42296655  0.58678700    -0.73600
O262        O  0.21419358  0.34890263  0.48081279    -0.74300
O263        O  0.24299254  0.42058141  0.58641918    -0.73900
O264        O  0.14171445  0.38933449  0.52037171    -0.74400
O265        O  0.22213314  0.48865235  0.47133601    -0.73800
O266        O  0.19873301  0.38627643  0.41273224    -0.74600
O267        O  0.18951757  0.46819242  0.52184886    -0.74000
O268        O  0.22715382  0.44073031  0.40741788    -0.74400
O269        O  0.28676046  0.48307997  0.46860261    -0.74400
O270        O  0.29706147  0.46039574  0.51847531    -0.74100
C271        C  0.23897717  0.35364716  0.50049231     0.77600
C272        C  0.12868456  0.36268495  0.50126138     0.78100
C273        C  0.21983830  0.42124571  0.60443993     0.77100
C274        C  0.20370912  0.49053006  0.49664637     0.77500
C275        C  0.21143346  0.41222533  0.39227947     0.78600
C276        C  0.30674565  0.48254988  0.49268812     0.77700
C277        C  0.22660107  0.40228189  0.70919488    -0.21900
C278        C  0.22047087  0.42508517  0.72759128     0.10000
C279        C  0.21376193  0.44611329  0.70562629     0.10400
C280        C  0.21336052  0.44387629  0.66553756    -0.16900
C281        C  0.21966144  0.42118860  0.64684328    -0.27300
C282        C  0.22584447  0.39967094  0.66907372     0.18800
C283        C  0.22023093  0.42594268  0.76997722     0.12700
C284        C  0.20708387  0.47091634  0.72455412    -0.11600
H285        H  0.20853895  0.46029031  0.64862807     0.13000
C286        C  0.23016254  0.37266242  0.65197956    -0.22500
H287        H  0.23124981  0.38586082  0.72634871     0.08600
C288        C  0.19133993  0.40567955  0.79094140     0.05000
C289        C  0.19195345  0.40802385  0.83103310    -0.19700
C290        C  0.22085621  0.43003727  0.85066357    -0.12000
C291        C  0.24976721  0.45073780  0.82943963     0.13700
C292        C  0.24909357  0.44806493  0.78934767    -0.22400
C293        C  0.15992566  0.38158091  0.77094148    -0.05500
H294        H  0.16983357  0.39221907  0.84721959     0.15200
C295        C  0.28129440  0.47693308  0.84755577    -0.15700
H296        H  0.27108062  0.46390118  0.77295320     0.09500
H297        H  0.21202732  0.34872417  0.66500236     0.07400
H298        H  0.25529748  0.37748136  0.65826625     0.08600
H299        H  0.22614257  0.36991410  0.62065452     0.07700
H300        H  0.22868279  0.48830955  0.74193788     0.02500
H301        H  0.18525619  0.45812206  0.74349094     0.03000
H302        H  0.20222222  0.48541123  0.70318330     0.06500
H303        H  0.13959980  0.36760693  0.79160001     0.05500
H304        H  0.16376430  0.36367147  0.75435855    -0.00300
H305        H  0.15229776  0.39491055  0.75109839     0.01200
H306        H  0.30102739  0.47105551  0.84258944     0.04900
H307        H  0.27924097  0.47986576  0.87870083     0.06800
H308        H  0.28870689  0.50111052  0.83419277     0.07700
C309        C  0.19482284  0.42733414  0.20950022    -0.21900
C310        C  0.20503837  0.40715714  0.22673931     0.10000
C311        C  0.21373733  0.38811313  0.20373836     0.10400
C312        C  0.21270021  0.39024969  0.16368262    -0.16900
C313        C  0.20378375  0.41150300  0.14630758    -0.27300
C314        C  0.19423973  0.42992604  0.16951614     0.18800
C315        C  0.20740682  0.40739366  0.26900550     0.12700
C316        C  0.22471567  0.36613494  0.22152010    -0.11600
H317        H  0.21997665  0.37614631  0.14585779     0.13000
C318        C  0.18280974  0.45182561  0.15238587    -0.22500
H319        H  0.18789078  0.44160454  0.22753368     0.08600
C320        C  0.23554012  0.43178045  0.28815597     0.05000
C321        C  0.23597591  0.43247764  0.32831462    -0.19700
C322        C  0.20875689  0.40959383  0.34991759    -0.12000
C323        C  0.18023216  0.38537351  0.33041112     0.13700
C324        C  0.18031490  0.38427893  0.29019682    -0.22400
C325        C  0.26503981  0.45712453  0.26614027    -0.05500
H326        H  0.25781392  0.45104927  0.34295743     0.15200
C327        C  0.14854159  0.36151157  0.35026525    -0.15700
H328        H  0.15855446  0.36599809  0.27514046     0.09500
H329        H  0.20320088  0.47249315  0.13657388     0.07400
H330        H  0.17436969  0.46266750  0.17477029     0.08600
H331        H  0.16193579  0.43730903  0.13258913     0.07700
H332        H  0.20479239  0.34739779  0.23985074     0.02500
H333        H  0.24692067  0.38104136  0.23933728     0.03000
H334        H  0.23085719  0.35309202  0.19944315     0.06500
H335        H  0.28508043  0.47434507  0.28553584     0.05500
H336        H  0.25795852  0.47179917  0.24780773    -0.00300
H337        H  0.27473181  0.44470323  0.24775639     0.01200
H338        H  0.12794401  0.36316408  0.33720880     0.04900
H339        H  0.14814542  0.36647874  0.38113627     0.06800
H340        H  0.14373533  0.33603127  0.34649966     0.07700
C341        C  0.97077988  0.26441407  0.46961232    -0.21900
C342        C  0.98729918  0.28072008  0.50315080     0.10000
C343        C  0.96921707  0.28030595  0.53549259     0.10400
C344        C  0.93489712  0.26459924  0.53308064    -0.16900
C345        C  0.91815425  0.24941252  0.49897498    -0.27300
C346        C  0.93637009  0.24870626  0.46701010     0.18800
C347        C  0.02357684  0.30091569  0.50249961     0.12700
C348        C  0.98620793  0.29692496  0.57231376    -0.11600
H349        H  0.92109675  0.26490106  0.55777721     0.13000
C350        C  0.92014015  0.23312419  0.42947384    -0.22500
H351        H  0.98504446  0.26507471  0.44491086     0.08600
C352        C  0.04375914  0.28708740  0.50749488     0.05000
C353        C  0.07809343  0.30768139  0.50630112    -0.19700
C354        C  0.09248334  0.34181094  0.50106632    -0.12000
C355        C  0.07204822  0.35552198  0.49584754     0.13700
C356        C  0.03785171  0.33480202  0.49641064    -0.22400
C357        C  0.02901519  0.25079699  0.51471657    -0.05500
H358        H  0.09375795  0.29724007  0.51030446     0.15200
C359        C  0.08599515  0.39178350  0.48857304    -0.15700
H360        H  0.02202611  0.34506167  0.49228066     0.09500
H361        H  0.93840409  0.23619927  0.40732321     0.07400
H362        H  0.90629329  0.24473172  0.41849777     0.08600
H363        H  0.90319364  0.20631268  0.43346967     0.07700
H364        H  0.00275990  0.32368880  0.56742329     0.02500
H365        H  0.00088698  0.28609044  0.58286999     0.03000
H366        H  0.96834946  0.29387312  0.59499908     0.06500
H367        H  0.04825177  0.24403814  0.51848437     0.05500
H368        H  0.01329217  0.23657948  0.49013118    -0.00300
H369        H  0.01383015  0.24375716  0.54114378     0.01200
H370        H  0.06638223  0.39765399  0.48260334     0.04900
H371        H  0.10267114  0.39963448  0.46339404     0.06800
H372        H  0.09966674  0.40622905  0.51412905     0.07700
C373        C  0.96529205  0.25252384  0.97612127    -0.21900
C374        C  0.98548292  0.28161258  0.99625445     0.10000
C375        C  0.97127847  0.29621979  0.01833374     0.10400
C376        C  0.93707435  0.28194693  0.01887576    -0.16900
C377        C  0.91636397  0.25347606  0.99740698    -0.27300
C378        C  0.93086452  0.23809078  0.97638932     0.18800
C379        C  0.02153951  0.29838709  0.99134629     0.12700
C380        C  0.99233822  0.32746029  0.04059352    -0.11600
H381        H  0.92664653  0.29389482  0.03548044     0.13000
C382        C  0.91077220  0.20683792  0.95380207    -0.22500
H383        H  0.97665766  0.24158021  0.95931715     0.08600
C384        C  0.04174296  0.29348458  0.01690276     0.05000
C385        C  0.07601014  0.31409096  0.01462631    -0.19700
C386        C  0.09055743  0.33963871  0.98738028    -0.12000
C387        C  0.06992952  0.34281289  0.96000251     0.13700
C388        C  0.03575912  0.32210882  0.96253458    -0.22400
C389        C  0.02702802  0.26696978  0.04698570    -0.05500
H390        H  0.09135502  0.31090495  0.03523456     0.15200
C391        C  0.08315947  0.36781666  0.92802400    -0.15700
H392        H  0.01980702  0.32527074  0.94279727     0.09500
H393        H  0.92639611  0.19809877  0.94048765     0.07400
H394        H  0.89754640  0.21111334  0.93026868     0.08600
H395        H  0.89299445  0.18699680  0.97300658     0.07700
H396        H  0.00877033  0.34751068  0.02074071     0.02500
H397        H  0.00750715  0.32342655  0.06176202     0.03000
H398        H  0.97728281  0.33564848  0.05640870     0.06500
H399        H  0.04626552  0.26631779  0.06467136     0.05500
H400        H  0.01221675  0.24260414  0.03295562    -0.00300
H401        H  0.01092026  0.27132779  0.06632397     0.01200
H402        H  0.06344674  0.36466135  0.90802132     0.04900
H403        H  0.10154476  0.36502616  0.91108453     0.06800
H404        H  0.09439688  0.39310873  0.93986196     0.07700
C405        C  0.79502997  0.23945741  0.78280397    -0.21900
C406        C  0.79724385  0.21405874  0.76497052     0.10000
C407        C  0.80011363  0.19073883  0.78727019     0.10400
C408        C  0.79970971  0.19278388  0.82732461    -0.16900
C409        C  0.79665198  0.21775470  0.84562792    -0.27300
C410        C  0.79478998  0.24179570  0.82284754     0.18800
C411        C  0.79655817  0.21254410  0.72272608     0.12700
C412        C  0.80359810  0.16376276  0.76872191    -0.11600
H413        H  0.80139947  0.17447191  0.84439390     0.13000
C414        C  0.79339310  0.27048939  0.84003909    -0.22500
H415        H  0.79332888  0.25748386  0.76513246     0.08600
C416        C  0.76669502  0.19536771  0.70250395     0.05000
C417        C  0.76718998  0.19552082  0.66234083    -0.19700
C418        C  0.79686390  0.21296433  0.64191962    -0.12000
C419        C  0.82691400  0.23003402  0.66255019     0.13700
C420        C  0.82624952  0.22946825  0.70273437    -0.22400
C421        C  0.73433976  0.17724383  0.72338259    -0.05500
H422        H  0.74415877  0.18250035  0.64683081     0.15200
C423        C  0.85987228  0.24834074  0.64282651    -0.15700
H424        H  0.84899811  0.24253076  0.71878565     0.09500
H425        H  0.77000452  0.26161825  0.85588893     0.07400
H426        H  0.79447951  0.28782844  0.81772415     0.08600
H427        H  0.81460734  0.28447062  0.85957622     0.07700
H428        H  0.82609034  0.17473138  0.75071197     0.02500
H429        H  0.78187418  0.14832473  0.75044420     0.03000
H430        H  0.80559430  0.14755440  0.79033401     0.06500
H431        H  0.71328205  0.16509571  0.70322948     0.05500
H432        H  0.73091134  0.19476650  0.74131389    -0.00300
H433        H  0.73397022  0.15799386  0.74206489     0.01200
H434        H  0.86206913  0.26971657  0.62682065     0.04900
H435        H  0.86279848  0.23157478  0.62294360     0.06800
H436        H  0.88051652  0.25808832  0.66363393     0.07700
C437        C  0.76631329  0.20156524  0.20501932    -0.21900
C438        C  0.79682406  0.22058014  0.22282496     0.10000
C439        C  0.82514846  0.23953194  0.20059925     0.10400
C440        C  0.82239569  0.23872738  0.16062662    -0.16900
C441        C  0.79193298  0.21924028  0.14222864    -0.27300
C442        C  0.76334857  0.20055492  0.16497641     0.18800
C443        C  0.79851725  0.21989392  0.26495017     0.12700
C444        C  0.85823792  0.26052218  0.21913703    -0.11600
H445        H  0.84439945  0.25314116  0.14368100     0.13000
C446        C  0.72955583  0.17992573  0.14782565    -0.22500
H447        H  0.74473312  0.18730469  0.22269250     0.08600
C448        C  0.79229866  0.24072756  0.28783229     0.05000
C449        C  0.79309878  0.23838230  0.32772630    -0.19700
C450        C  0.79979368  0.21550020  0.34544623    -0.12000
C451        C  0.80668360  0.19500420  0.32210320     0.13700
C452        C  0.80585609  0.19751274  0.28208955    -0.22400
C453        C  0.78465461  0.26528766  0.27011769    -0.05500
H454        H  0.78826083  0.25452837  0.34513601     0.15200
C455        C  0.81409341  0.16988624  0.33863851    -0.15700
H456        H  0.81065486  0.18172278  0.26392549     0.09500
H457        H  0.71021871  0.16874263  0.17022372     0.07400
H458        H  0.72838061  0.15942266  0.13084812     0.08600
H459        H  0.72367763  0.19545950  0.12935776     0.07700
H460        H  0.86479567  0.24478275  0.23620757     0.02500
H461        H  0.85746207  0.27893733  0.23831068     0.03000
H462        H  0.87788999  0.27396768  0.19755494     0.06500
H463        H  0.78056471  0.27984020  0.29220587     0.05500
H464        H  0.76206473  0.25223101  0.25241211    -0.00300
H465        H  0.80543881  0.28267193  0.25171031     0.01200
H466        H  0.81759067  0.15541898  0.31589640     0.04900
H467        H  0.79338926  0.15231706  0.35702740     0.06800
H468        H  0.83713879  0.18240609  0.35562125     0.07700
C469        C  0.42554496  0.62983364  0.50074000    -0.21900
C470        C  0.43090918  0.60327105  0.49767618     0.10000
C471        C  0.46329789  0.60910662  0.49578669     0.10400
C472        C  0.48982076  0.64164957  0.49751537    -0.16900
C473        C  0.48449788  0.66837682  0.50008904    -0.27300
C474        C  0.45189233  0.66235676  0.50179507     0.18800
C475        C  0.40187284  0.56965600  0.49644447     0.12700
C476        C  0.46972872  0.58102357  0.49166551    -0.11600
H477        H  0.51478323  0.64630649  0.49610763     0.13000
C478        C  0.44465967  0.68997649  0.50594156    -0.22500
H479        H  0.40051521  0.62499732  0.50228147     0.08600
C480        C  0.38667565  0.55233838  0.53032844     0.05000
C481        C  0.35670765  0.52250834  0.52795328    -0.19700
C482        C  0.34142301  0.50978569  0.49244765    -0.12000
C483        C  0.35807047  0.52606840  0.45832544     0.13700
C484        C  0.38781739  0.55610383  0.46087361    -0.22400
C485        C  0.40150229  0.56598033  0.56900910    -0.05500
H486        H  0.34425321  0.51008807  0.55413909     0.15200
C487        C  0.34565816  0.51246656  0.41881683    -0.15700
H488        H  0.39996061  0.56930209  0.43489890     0.09500
H489        H  0.41791639  0.68055464  0.50917325     0.07400
H490        H  0.45311340  0.70590890  0.48014322     0.08600
H491        H  0.45727382  0.70488542  0.53171613     0.07700
H492        H  0.45828382  0.56730080  0.46483156     0.02500
H493        H  0.45908160  0.56404144  0.51640590     0.03000
H494        H  0.49645825  0.58984215  0.49047960     0.06500
H495        H  0.38644564  0.54935629  0.59261196     0.05500
H496        H  0.40331131  0.59019566  0.57342027    -0.00300
H497        H  0.42644697  0.56916102  0.57074108     0.01200
H498        H  0.33880816  0.52874409  0.40338429     0.04900
H499        H  0.32435474  0.48705080  0.41914193     0.06800
H500        H  0.36541236  0.51152988  0.40253752     0.07700
C501        C  0.69342107  0.96914241  0.52819384    -0.21900
C502        C  0.70760668  0.98258475  0.49268499     0.10000
C503        C  0.70399713  0.96158260  0.46197903     0.10400
C504        C  0.68474339  0.92732733  0.46702208    -0.16900
C505        C  0.66868374  0.91366840  0.50199052    -0.27300
C506        C  0.67391255  0.93501550  0.53334857     0.18800
C507        C  0.72365352  0.01871170  0.48802417     0.12700
C508        C  0.71977557  0.97538940  0.42376089    -0.11600
H509        H  0.68115150  0.91123260  0.44301385     0.13000
C510        C  0.65934103  0.92235327  0.57245394    -0.22500
H511        H  0.69671783  0.98563188  0.55167652     0.08600
C512        C  0.70469231  0.03359946  0.48081180     0.05000
C513        C  0.71985318  0.06798830  0.48146279    -0.19700
C514        C  0.75355323  0.08791981  0.48915534    -0.12000
C515        C  0.77273337  0.07296724  0.49569676     0.13700
C516        C  0.75747753  0.03845117  0.49474208    -0.22400
C517        C  0.66832664  0.01312096  0.47300670    -0.05500
H518        H  0.70521895  0.07944404  0.47631711     0.15200
C519        C  0.80870658  0.09221945  0.50594866    -0.15700
H520        H  0.77180032  0.02680623  0.50077270     0.09500
H521        H  0.63221159  0.91082078  0.57146575     0.07400
H522        H  0.66848893  0.94248913  0.59396052     0.08600
H523        H  0.66612062  0.90419937  0.58251385     0.07700
H524        H  0.74684315  0.99057431  0.42729574     0.02500
H525        H  0.71039982  0.99097471  0.41195553     0.03000
H526        H  0.71444768  0.95559030  0.40272009     0.06500
H527        H  0.65724836  0.02869195  0.46759571     0.05500
H528        H  0.65561124  0.99712895  0.49801337    -0.00300
H529        H  0.66401605  0.99747655  0.44736886     0.01200
H530        H  0.81256198  0.08351829  0.53397387     0.04900
H531        H  0.81847093  0.11900690  0.50859858     0.06800
H532        H  0.82317329  0.08817566  0.48375127     0.07700
C533        C  0.39244914  0.55347344  0.99468351    -0.21900
C534        C  0.39424211  0.58323196  0.00424600     0.10000
C535        C  0.36571187  0.58343813  0.01574717     0.10400
C536        C  0.33575359  0.55374364  0.01707865    -0.16900
C537        C  0.33347982  0.52385892  0.00651335    -0.27300
C538        C  0.36231375  0.52363946  0.99554720     0.18800
C539        C  0.42607723  0.61423269  0.00159959     0.12700
C540        C  0.36684743  0.61506908  0.02622122    -0.11600
H541        H  0.31376510  0.55403858  0.02543624     0.13000
C542        C  0.36174346  0.49217757  0.98569348    -0.22500
H543        H  0.41468946  0.55371034  0.98620976     0.08600
C544        C  0.44769083  0.62641213  0.03300937     0.05000
C545        C  0.47586878  0.65768850  0.03059836    -0.19700
C546        C  0.48284867  0.67726555  0.99753694    -0.12000
C547        C  0.46158862  0.66417915  0.96535148     0.13700
C548        C  0.43349935  0.63276294  0.96794035    -0.22400
C549        C  0.44057832  0.60665213  0.06931974    -0.05500
H550        H  0.49195674  0.66725983  0.05526981     0.15200
C551        C  0.46808432  0.68269189  0.92808334    -0.15700
H552        H  0.41664491  0.62287188  0.94394110     0.09500
H553        H  0.38685614  0.49651077  0.98038157     0.07400
H554        H  0.34716318  0.48119647  0.95928083     0.08600
H555        H  0.35089437  0.47445906  0.00977380     0.07700
H556        H  0.37556895  0.63208595  0.00134325     0.02500
H557        H  0.38386280  0.62694904  0.05068923     0.03000
H558        H  0.34225996  0.61077960  0.03462945     0.06500
H559        H  0.45998935  0.61983086  0.09123829     0.05500
H560        H  0.43921254  0.58288342  0.06296560    -0.00300
H561        H  0.41679081  0.60170794  0.08161436     0.01200
H562        H  0.49299506  0.68984823  0.91735542     0.04900
H563        H  0.46594533  0.70490455  0.93217023     0.06800
H564        H  0.45009817  0.66749589  0.90558060     0.07700
C565        C  0.69707602  0.97481221  0.03429453    -0.21900
C566        C  0.70838069  0.98917747  0.99827496     0.10000
C567        C  0.70246301  0.96904305  0.96588684     0.10400
C568        C  0.68339046  0.93472029  0.96989816    -0.16900
C569        C  0.66990477  0.92025401  0.00552523    -0.27300
C570        C  0.67784743  0.94055545  0.03842872     0.18800
C571        C  0.72344673  0.02524773  0.99492669     0.12700
C572        C  0.71568560  0.98384629  0.92709456    -0.11600
H573        H  0.67770830  0.91922668  0.94476179     0.13000
C574        C  0.66644476  0.92645145  0.07798672    -0.22500
H575        H  0.70224818  0.99061904  0.05905257     0.08600
C576        C  0.70375971  0.03934555  0.98773769     0.05000
C577        C  0.71828657  0.07365229  0.98762948    -0.19700
C578        C  0.75198190  0.09421326  0.99477724    -0.12000
C579        C  0.77170832  0.08004252  0.00232394     0.13700
C580        C  0.75713674  0.04561168  0.00193530    -0.22400
C581        C  0.66728940  0.01815784  0.98094520    -0.05500
H582        H  0.70320023  0.08455552  0.98209485     0.15200
C583        C  0.80757616  0.10010876  0.01288183    -0.15700
H584        H  0.77193963  0.03453459  0.00823482     0.09500
H585        H  0.63935603  0.91469624  0.08026127     0.07400
H586        H  0.67730633  0.94582667  0.10041367     0.08600
H587        H  0.67397232  0.90806664  0.08417940     0.07700
H588        H  0.74291690  0.99887080  0.92833287     0.02500
H589        H  0.70579026  0.99980510  0.91832516     0.03000
H590        H  0.70883362  0.96459759  0.90481047     0.06500
H591        H  0.65557573  0.03321284  0.97598354     0.05500
H592        H  0.65540102  0.00228034  0.00629332    -0.00300
H593        H  0.66264448  0.00235893  0.95539930     0.01200
H594        H  0.81149178  0.09196481  0.04125077     0.04900
H595        H  0.81673330  0.12682105  0.01502450     0.06800
H596        H  0.82251299  0.09624996  0.99116560     0.07700
C597        C  0.61145803  0.82171306  0.79410173    -0.21900
C598        C  0.58876728  0.79227471  0.77599714     0.10000
C599        C  0.56625219  0.76521815  0.79821434     0.10400
C600        C  0.56663399  0.76833301  0.83819211    -0.16900
C601        C  0.58910755  0.79785180  0.85654016    -0.27300
C602        C  0.61177159  0.82505290  0.83412368     0.18800
C603        C  0.58776926  0.79086119  0.73360596     0.12700
C604        C  0.54162809  0.73321319  0.77964427    -0.11600
H605        H  0.54929677  0.74751217  0.85530918     0.13000
C606        C  0.63543083  0.85837597  0.85083266    -0.22500
H607        H  0.62842656  0.84255417  0.77674503     0.08600
C608        C  0.57005040  0.80233167  0.71259927     0.05000
C609        C  0.56972775  0.80064109  0.67250041    -0.19700
C610        C  0.58674303  0.78777192  0.65274121    -0.12000
C611        C  0.60486918  0.77656161  0.67398908     0.13700
C612        C  0.60472366  0.77789904  0.71421752    -0.22400
C613        C  0.55127037  0.81611340  0.73256294    -0.05500
H614        H  0.55582124  0.80921261  0.65642781     0.15200
C615        C  0.62590851  0.76454598  0.65576848    -0.15700
H616        H  0.61848930  0.76935369  0.73062831     0.09500
H617        H  0.63133954  0.87730563  0.83716547     0.07400
H618        H  0.66105295  0.86448465  0.84497784     0.08600
H619        H  0.63256576  0.86001885  0.88206918     0.07700
H620        H  0.55468597  0.72310005  0.76316860     0.02500
H621        H  0.52562593  0.73738246  0.75991601     0.03000
H622        H  0.52569793  0.71456050  0.80118074     0.06500
H623        H  0.53846026  0.82370183  0.71185645     0.05500
H624        H  0.56841138  0.83803369  0.74969862    -0.00300
H625        H  0.53251738  0.79720784  0.75186858     0.01200
H626        H  0.65135407  0.77904173  0.66709091     0.04900
H627        H  0.62777338  0.76726440  0.62427501     0.06800
H628        H  0.61593585  0.73822451  0.66307023     0.07700
C629        C  0.55724914  0.76673150  0.21469647    -0.21900
C630        C  0.58147930  0.79493825  0.23340406     0.10000
C631        C  0.60352111  0.82277343  0.21193092     0.10400
C632        C  0.60094735  0.82171052  0.17189624    -0.16900
C633        C  0.57686491  0.79341031  0.15290179    -0.27300
C634        C  0.55424477  0.76569877  0.17468279     0.18800
C635        C  0.58265474  0.79501663  0.27566940     0.12700
C636        C  0.62973123  0.85349460  0.23130615    -0.11600
H637        H  0.61819005  0.84293915  0.15526287     0.13000
C638        C  0.52576456  0.73530162  0.15727990    -0.22500
H639        H  0.54006036  0.74563105  0.23156720     0.08600
C640        C  0.56290287  0.80336569  0.29771433     0.05000
C641        C  0.56394950  0.80200668  0.33775756    -0.19700
C642        C  0.58424305  0.79240496  0.35624803    -0.12000
C643        C  0.60387746  0.78372596  0.33390499     0.13700
C644        C  0.60308522  0.78561222  0.29384116    -0.22400
C645        C  0.54078090  0.81370978  0.27891487    -0.05500
H646        H  0.54894924  0.80867099  0.35477740     0.15200
C647        C  0.62464295  0.77079228  0.35070818    -0.15700
H648        H  0.61789816  0.77887446  0.27654655     0.09500
H649        H  0.50252157  0.73061904  0.17098129     0.07400
H650        H  0.52886813  0.71376628  0.16247506     0.08600
H651        H  0.52288473  0.73742665  0.12614392     0.07700
H652        H  0.64625445  0.84774900  0.24797247     0.02500
H653        H  0.61819343  0.86326603  0.25098902     0.03000
H654        H  0.64489915  0.87304600  0.21024678     0.06500
H655        H  0.52713744  0.81963317  0.30037566     0.05500
H656        H  0.52255828  0.79350741  0.26043286    -0.00300
H657        H  0.55563728  0.83593560  0.26108356     0.01200
H658        H  0.61767598  0.74671914  0.33732800     0.04900
H659        H  0.62153445  0.76649352  0.38195203     0.06800
H660        H  0.65097391  0.78833403  0.34455861     0.07700
C661        C  0.79196848  0.42020841  0.49984721    -0.21900
C662        C  0.82337035  0.42519985  0.49278379     0.10000
C663        C  0.84992005  0.45727951  0.48645052     0.10400
C664        C  0.84444193  0.48394967  0.48774772    -0.16900
C665        C  0.81308318  0.47910879  0.49575627    -0.27300
C666        C  0.78640039  0.44670886  0.50152335     0.18800
C667        C  0.82727831  0.39600326  0.49205358     0.12700
C668        C  0.88393282  0.46327185  0.47877660    -0.11600
H669        H  0.86479369  0.50870657  0.48312632     0.13000
C670        C  0.75178107  0.43961422  0.50817879    -0.22500
H671        H  0.77172262  0.39533479  0.50420090     0.08600
C672        C  0.82952808  0.38135896  0.52625339     0.05000
C673        C  0.82816560  0.35093950  0.52457471    -0.19700
C674        C  0.82432349  0.33477812  0.48946304    -0.12000
C675        C  0.82459881  0.35081447  0.45494333     0.13700
C676        C  0.82553262  0.38101844  0.45681003    -0.22400
C677        C  0.83243272  0.39743539  0.56452031    -0.05500
H678        H  0.82836442  0.33893863  0.55099102     0.15200
C679        C  0.82449089  0.33729332  0.41571051    -0.15700
H680        H  0.82435029  0.39274070  0.43058864     0.09500
H681        H  0.75020461  0.45023918  0.53592391     0.07400
H682        H  0.73387674  0.41275287  0.50929466     0.08600
H683        H  0.74427937  0.45017923  0.48451687     0.07700
H684        H  0.88377660  0.45003106  0.45237767     0.02500
H685        H  0.89216392  0.45421821  0.50329594     0.03000
H686        H  0.90197689  0.48986291  0.47478049     0.06500
H687        H  0.83421201  0.38283355  0.58840368     0.05500
H688        H  0.81054364  0.39990576  0.56962485    -0.00300
H689        H  0.85484241  0.42223795  0.56493276     0.01200
H690        H  0.80126063  0.33087897  0.40065932     0.04900
H691        H  0.82739265  0.31539311  0.41643220     0.06800
H692        H  0.84546809  0.35631599  0.39878902     0.07700
C693        C  0.71590429  0.74898195  0.47870900    -0.21900
C694        C  0.70866657  0.72209855  0.50232584     0.10000
C695        C  0.68116557  0.70938968  0.52680206     0.10400
C696        C  0.66120614  0.72352848  0.52672060    -0.16900
C697        C  0.66755259  0.74996506  0.50233459    -0.27300
C698        C  0.69569159  0.76302487  0.47809530     0.18800
C699        C  0.72830866  0.70559281  0.49885230     0.12700
C700        C  0.67217021  0.68012169  0.55219553    -0.11600
H701        H  0.64006009  0.71326833  0.54558064     0.13000
C702        C  0.70454066  0.79112333  0.45080757    -0.22500
H703        H  0.73705522  0.75843734  0.45994883     0.08600
C704        C  0.72350384  0.68448700  0.46778321     0.05000
C705        C  0.73883005  0.66560799  0.46809611    -0.19700
C706        C  0.75856340  0.66674292  0.49901315    -0.12000
C707        C  0.76454282  0.68914588  0.52943573     0.13700
C708        C  0.74944957  0.70840812  0.52873774    -0.22400
C709        C  0.70101599  0.68073375  0.43503353    -0.05500
H710        H  0.73447034  0.64901463  0.44437327     0.15200
C711        C  0.78532768  0.69189541  0.56359011    -0.15700
H712        H  0.75303257  0.72481487  0.55243368     0.09500
H713        H  0.72705108  0.79755611  0.43408591     0.07400
H714        H  0.70938862  0.81342905  0.46702815     0.08600
H715        H  0.68426793  0.78422054  0.42999459     0.07700
H716        H  0.69222326  0.68617950  0.57301235     0.02500
H717        H  0.66814662  0.65880904  0.53445524     0.03000
H718        H  0.64933013  0.67269291  0.56871558     0.06500
H719        H  0.69930568  0.66247426  0.41361137     0.05500
H720        H  0.71040796  0.70466402  0.42015777    -0.00300
H721        H  0.67589671  0.67230230  0.44605894     0.01200
H722        H  0.78631450  0.70985458  0.58498608     0.04900
H723        H  0.81090950  0.70044207  0.55428211     0.06800
H724        H  0.77490078  0.66763679  0.57803076     0.07700
C725        C  0.82512371  0.38882650  0.96112924    -0.21900
C726        C  0.83165449  0.40510279  0.99637671     0.10000
C727        C  0.83701384  0.39093063  0.02909818     0.10400
C728        C  0.83395165  0.35974306  0.02622956    -0.16900
C729        C  0.82492267  0.34212617  0.99148444    -0.27300
C730        C  0.82162519  0.35749313  0.95813285     0.18800
C731        C  0.82775657  0.43428744  0.99919482     0.12700
C732        C  0.84501088  0.40834027  0.06720072    -0.11600
H733        H  0.83695993  0.34842344  0.05169820     0.13000
C734        C  0.81439862  0.34129617  0.91923396    -0.22500
H735        H  0.82119920  0.40010498  0.93615902     0.08600
C736        C  0.85300047  0.46616832  0.98928035     0.05000
C737        C  0.84673429  0.49236659  0.99037092    -0.19700
C738        C  0.81570621  0.48729788  0.00111474    -0.12000
C739        C  0.79035367  0.45492218  0.01080735     0.13700
C740        C  0.79690418  0.42905161  0.00980491    -0.22400
C741        C  0.88638404  0.47238934  0.97753721    -0.05500
H742        H  0.86619140  0.51690481  0.98285594     0.15200
C743        C  0.75588162  0.44676658  0.02082562    -0.15700
H744        H  0.77758439  0.40423546  0.01678710     0.09500
H745        H  0.83273885  0.33387080  0.91238942     0.07400
H746        H  0.81562112  0.35820740  0.89627115     0.08600
H747        H  0.78925328  0.31947368  0.91857823     0.07700
H748        H  0.82461727  0.41215464  0.07629935     0.02500
H749        H  0.86793210  0.43261068  0.06469732     0.03000
H750        H  0.84871031  0.39397485  0.08985863     0.06500
H751        H  0.90344872  0.49876301  0.97085711     0.05500
H752        H  0.88411406  0.45770329  0.95161649    -0.00300
H753        H  0.89723030  0.46516336  0.00113917     0.01200
H754        H  0.74566673  0.45491791  0.99743748     0.04900
H755        H  0.75593300  0.45881864  0.04817182     0.06800
H756        H  0.73908104  0.41988484  0.02474556     0.07700
C757        C  0.68519957  0.72305128  0.04276864    -0.21900
C758        C  0.70342177  0.72595700  0.00984477     0.10000
C759        C  0.70373941  0.74544903  0.97903225     0.10400
C760        C  0.68439973  0.76030875  0.98103908    -0.16900
C761        C  0.66431426  0.75574097  0.01297697    -0.27300
C762        C  0.66566712  0.73771546  0.04489436     0.18800
C763        C  0.71897146  0.70546845  0.00665366     0.12700
C764        C  0.72405822  0.75004171  0.94377949    -0.11600
H765        H  0.68392465  0.77439695  0.95676056     0.13000
C766        C  0.64695077  0.73387030  0.08143797    -0.22500
H767        H  0.68539011  0.70821771  0.06640537     0.08600
C768        C  0.74941629  0.71450628  0.02377053     0.05000
C769        C  0.76229150  0.69341283  0.02044762    -0.19700
C770        C  0.74529717  0.66323405  0.00056176    -0.12000
C771        C  0.71438569  0.65429922  0.98360253     0.13700
C772        C  0.70189967  0.67564188  0.98688092    -0.22400
C773        C  0.76825625  0.74641434  0.04542039    -0.05500
H774        H  0.78577321  0.70060461  0.03362150     0.15200
C775        C  0.69361714  0.62215304  0.96275356    -0.15700
H776        H  0.67831007  0.66890448  0.97420349     0.09500
H777        H  0.65300085  0.75845264  0.09240601     0.07400
H778        H  0.65331112  0.72152476  0.10416762     0.08600
H779        H  0.62012136  0.71851023  0.07634965     0.07700
H780        H  0.71578547  0.72589707  0.92985227     0.02500
H781        H  0.75033420  0.76126500  0.95190215     0.03000
H782        H  0.72190516  0.76640138  0.92252781     0.06500
H783        H  0.79182116  0.74996432  0.05682024     0.05500
H784        H  0.75337393  0.74661609  0.06995931    -0.00300
H785        H  0.77386563  0.76735258  0.02611644     0.01200
H786        H  0.68781591  0.60118026  0.98209492     0.04900
H787        H  0.70672509  0.62109313  0.93686447     0.06800
H788        H  0.66986309  0.61921441  0.95295760     0.07700
C789        C  0.81409395  0.57389798  0.79016898    -0.21900
C790        C  0.79494278  0.58414000  0.77057911     0.10000
C791        C  0.77613152  0.59448221  0.79130054     0.10400
C792        C  0.77699171  0.59443954  0.83142310    -0.16900
C793        C  0.79616288  0.58419133  0.85149745    -0.27300
C794        C  0.81511097  0.57382223  0.83035158     0.18800
C795        C  0.79477341  0.58353931  0.72823956     0.12700
C796        C  0.75537066  0.60582471  0.77107719    -0.11600
H797        H  0.76251992  0.60251757  0.84717059     0.13000
C798        C  0.83581890  0.56180458  0.84940078    -0.22500
H799        H  0.82822529  0.56576858  0.77376845     0.08600
C800        C  0.82151259  0.60755244  0.70679413     0.05000
C801        C  0.82020336  0.60588842  0.66667569    -0.19700
C802        C  0.79288756  0.58057696  0.64753225    -0.12000
C803        C  0.76588012  0.55663396  0.66926131     0.13700
C804        C  0.76731735  0.55844574  0.70937851    -0.22400
C805        C  0.85123748  0.63511230  0.72624377    -0.05500
H806        H  0.84083601  0.62422920  0.65017637     0.15200
C807        C  0.73501398  0.52974782  0.65067886    -0.15700
H808        H  0.74689948  0.54020850  0.72625590     0.09500
H809        H  0.85587615  0.58204343  0.86612784     0.07400
H810        H  0.84753029  0.55336100  0.82815850     0.08600
H811        H  0.82026862  0.54067711  0.86847146     0.07700
H812        H  0.73619029  0.58542945  0.75365369     0.02500
H813        H  0.77110312  0.62692232  0.75206095     0.03000
H814        H  0.74281749  0.61385316  0.79163344     0.06500
H815        H  0.86960557  0.65219698  0.70517689     0.05500
H816        H  0.86331508  0.62490727  0.74433537    -0.00300
H817        H  0.84366927  0.64945935  0.74450208     0.01200
H818        H  0.74038440  0.51255687  0.63486318     0.04900
H819        H  0.72482252  0.54071614  0.63074875     0.06800
H820        H  0.71572681  0.51498429  0.67217668     0.07700
C821        C  0.81988879  0.60326714  0.20891783    -0.21900
C822        C  0.79101586  0.58068657  0.22792078     0.10000
C823        C  0.76288176  0.55899293  0.20667154     0.10400
C824        C  0.76412760  0.56068119  0.16659748    -0.16900
C825        C  0.79291415  0.58348244  0.14729092    -0.27300
C826        C  0.82149073  0.60454554  0.16878217     0.18800
C827        C  0.79091016  0.57986107  0.27019476     0.12700
C828        C  0.73161762  0.53410406  0.22632275    -0.11600
H829        H  0.74234763  0.54429509  0.15021411     0.13000
C830        C  0.85445456  0.62733272  0.15081756    -0.22500
H831        H  0.84157943  0.61943152  0.22557288     0.08600
C832        C  0.80162950  0.56110917  0.29038451     0.05000
C833        C  0.80096813  0.56101765  0.33052898    -0.19700
C834        C  0.78952892  0.57900996  0.35092275    -0.12000
C835        C  0.77897859  0.59802185  0.33044787     0.13700
C836        C  0.77986324  0.59817584  0.29025142    -0.22400
C837        C  0.81355657  0.54108937  0.26951606    -0.05500
H838        H  0.80906297  0.54646432  0.34608581     0.15200
C839        C  0.76784593  0.61906568  0.35053822    -0.15700
H840        H  0.77189966  0.61264398  0.27426925     0.09500
H841        H  0.87320613  0.62235130  0.16319543     0.07400
H842        H  0.86172950  0.65328434  0.15696347     0.08600
H843        H  0.85487950  0.62405481  0.11951128     0.07700
H844        H  0.72256397  0.54693263  0.24500132     0.02500
H845        H  0.73630584  0.51734918  0.24407775     0.03000
H846        H  0.71196752  0.51890288  0.20538980     0.06500
H847        H  0.82089466  0.52769885  0.28967679     0.05500
H848        H  0.83521614  0.55752189  0.25163409    -0.00300
H849        H  0.79372890  0.52268116  0.25080015     0.01200
H850        H  0.76258474  0.63378911  0.32993113     0.04900
H851        H  0.78736304  0.63645831  0.37034633     0.06800
H852        H  0.74491539  0.60332600  0.36680758     0.07700
C853        C  0.44553853  0.81843653  0.54814161    -0.21900
C854        C  0.43454009  0.82558687  0.51423661     0.10000
C855        C  0.45257980  0.83115073  0.48011283     0.10400
C856        C  0.48044381  0.82776257  0.48022132    -0.16900
C857        C  0.49061949  0.81888248  0.51366778    -0.27300
C858        C  0.47311998  0.81451352  0.54832161     0.18800
C859        C  0.40148376  0.82185190  0.51367298     0.12700
C860        C  0.44171149  0.83954972  0.44337312    -0.11600
H861        H  0.49389125  0.83119570  0.45377962     0.13000
C862        C  0.48093079  0.80334755  0.58534012    -0.22500
H863        H  0.43121872  0.81376339  0.57413241     0.08600
C864        C  0.37357360  0.79077306  0.50653672     0.05000
C865        C  0.34260326  0.78789152  0.50468486    -0.19700
C866        C  0.33870499  0.81524065  0.51029883    -0.12000
C867        C  0.36670590  0.84643817  0.51776430     0.13700
C868        C  0.39790680  0.84936258  0.51925299    -0.22400
C869        C  0.37651872  0.76062157  0.50071115    -0.05500
H870        H  0.32116297  0.76396483  0.49920364     0.15200
C871        C  0.36402482  0.87678500  0.52273485    -0.15700
H872        H  0.41960119  0.87314827  0.52445874     0.09500
H873        H  0.45883682  0.78040908  0.59525081     0.07400
H874        H  0.48777926  0.82265339  0.60753043     0.08600
H875        H  0.50101888  0.79782839  0.58295307     0.07700
H876        H  0.44121970  0.86270936  0.44718015     0.02500
H877        H  0.41673637  0.81941739  0.43548559     0.03000
H878        H  0.45858297  0.84307928  0.41927944     0.06500
H879        H  0.35224213  0.73829590  0.49533506     0.05500
H880        H  0.38728278  0.75612084  0.52666343    -0.00300
H881        H  0.39256751  0.76424909  0.47571287     0.01200
H882        H  0.34928379  0.87432839  0.54861296     0.04900
H883        H  0.35215960  0.88028805  0.49712208     0.06800
H884        H  0.38854102  0.89924341  0.52632246     0.07700
C885        C  0.20341982  0.62604520  0.53598302    -0.21900
C886        C  0.19424480  0.60825001  0.50160126     0.10000
C887        C  0.18509128  0.62030780  0.46984983     0.10400
C888        C  0.18661643  0.65074858  0.47276087    -0.16900
C889        C  0.19669898  0.66913378  0.50682295    -0.27300
C890        C  0.20504055  0.65653616  0.53902413     0.18800
C891        C  0.19632061  0.57802567  0.49895418     0.12700
C892        C  0.17401914  0.60118949  0.43290496    -0.11600
H893        H  0.18032520  0.66051394  0.44814558     0.13000
C894        C  0.21753003  0.67510383  0.57623148    -0.22500
H895        H  0.21053839  0.61660851  0.56020591     0.08600
C896        C  0.22533947  0.57926658  0.48640496     0.05000
C897        C  0.22668034  0.55020851  0.48538433    -0.19700
C898        C  0.19988573  0.51995934  0.49729719    -0.12000
C899        C  0.17065784  0.51883531  0.50967805     0.13700
C900        C  0.16929713  0.54796614  0.51021756    -0.22400
C901        C  0.25506739  0.61136714  0.47471746    -0.05500
H902        H  0.24913819  0.55129821  0.47604736     0.15200
C903        C  0.14053019  0.48709969  0.52140312    -0.15700
H904        H  0.14713232  0.54741322  0.51972417     0.09500
H905        H  0.24222470  0.67871496  0.58255116     0.07400
H906        H  0.20053988  0.66059996  0.59981935     0.08600
H907        H  0.21998108  0.69973558  0.57592928     0.07700
H908        H  0.15192397  0.57674368  0.43825375     0.02500
H909        H  0.19385393  0.59763369  0.42109333     0.03000
H910        H  0.16762501  0.61412795  0.41098350     0.06500
H911        H  0.27580821  0.60799349  0.46588439     0.05500
H912        H  0.26344581  0.62887824  0.49914360    -0.00300
H913        H  0.24885790  0.62223759  0.45022262     0.01200
H914        H  0.14561553  0.47724331  0.54773247     0.04900
H915        H  0.13305718  0.46883916  0.49784563     0.06800
H916        H  0.11944754  0.49066195  0.52774459     0.07700
C917        C  0.97005046  0.68329633  0.46384022    -0.21900
C918        C  0.98644443  0.69452360  0.49883513     0.10000
C919        C  0.96823140  0.68846292  0.53295523     0.10400
C920        C  0.93373375  0.67044710  0.53138374    -0.16900
C921        C  0.91716615  0.65779016  0.49652299    -0.27300
C922        C  0.93562997  0.66480630  0.46217475     0.18800
C923        C  0.02270646  0.71062657  0.49924197     0.12700
C924        C  0.98528640  0.70032468  0.57101022    -0.11600
H925        H  0.91968842  0.66510692  0.55767572     0.13000
C926        C  0.91937775  0.65331572  0.42356927    -0.22500
H927        H  0.98437686  0.68825892  0.43782174     0.08600
C928        C  0.03819691  0.69178068  0.50165837     0.05000
C929        C  0.07256868  0.70780707  0.50251259    -0.19700
C930        C  0.09201203  0.74230976  0.50035541    -0.12000
C931        C  0.07632195  0.76115806  0.49693657     0.13700
C932        C  0.04177185  0.74498070  0.49667721    -0.22400
C933        C  0.01840346  0.65471831  0.50335267    -0.05500
H934        H  0.08434564  0.69317880  0.50457635     0.15200
C935        C  0.09556013  0.79819531  0.49459780    -0.15700
H936        H  0.02949445  0.75913167  0.49451970     0.09500
H937        H  0.90672663  0.62609156  0.42162784     0.07400
H938        H  0.93755167  0.66336122  0.39984403     0.08600
H939        H  0.90140818  0.66165008  0.41909001     0.07700
H940        H  0.00098048  0.72755915  0.57064528     0.02500
H941        H  0.00090408  0.68935621  0.57664357     0.03000
H942        H  0.96744038  0.69336743  0.59493280     0.06500
H943        H  0.03439993  0.64375593  0.50526405     0.05500
H944        H  0.00312443  0.64497484  0.47713563    -0.00300
H945        H  0.00213138  0.64677330  0.52887863     0.01200
H946        H  0.11043099  0.80607600  0.46794730     0.04900
H947        H  0.11192421  0.80848461  0.51991388     0.06800
H948        H  0.07916351  0.80875139  0.49401287     0.07700
C949        C  0.37176935  0.79527605  0.00993113    -0.21900
C950        C  0.39875571  0.82737528  0.01090541     0.10000
C951        C  0.39352578  0.85434068  0.01104920     0.10400
C952        C  0.36117642  0.84852526  0.00988838    -0.16900
C953        C  0.33407690  0.81633893  0.00784660    -0.27300
C954        C  0.33949469  0.78934918  0.00836785     0.18800
C955        C  0.43214506  0.83168236  0.01044096     0.12700
C956        C  0.42207627  0.88910972  0.01238623    -0.11600
H957        H  0.35703490  0.86916682  0.00983104     0.13000
C958        C  0.31139882  0.75420541  0.00846841    -0.22500
H959        H  0.37608569  0.77473582  0.01008859     0.08600
C960        C  0.44683856  0.82834271  0.04401647     0.05000
C961        C  0.47636582  0.82796795  0.04122057    -0.19700
C962        C  0.49126957  0.83043735  0.00552380    -0.12000
C963        C  0.47766196  0.83615473  0.97226120     0.13700
C964        C  0.44804258  0.83628762  0.97513942    -0.22400
C965        C  0.43085079  0.82425036  0.08256647    -0.05500
H966        H  0.48686513  0.82388955  0.06679203     0.15200
C967        C  0.49380614  0.84265838  0.93344722    -0.15700
H968        H  0.43690507  0.83938714  0.94949667     0.09500
H969        H  0.29470916  0.75030823  0.03289089     0.07400
H970        H  0.32019153  0.73643160  0.01144110     0.08600
H971        H  0.29751526  0.74854757  0.98118195     0.07700
H972        H  0.43800534  0.89393500  0.98692822     0.02500
H973        H  0.43670638  0.89273861  0.03874516     0.03000
H974        H  0.41375032  0.90735821  0.01252305     0.06500
H975        H  0.44567943  0.82215789  0.10593058     0.05500
H976        H  0.40623097  0.80162219  0.08273449    -0.00300
H977        H  0.42809771  0.84587815  0.08866178     0.01200
H978        H  0.47783861  0.82247313  0.91346282     0.04900
H979        H  0.51839946  0.84504922  0.93424025     0.06800
H980        H  0.49728267  0.86622068  0.92200728     0.07700
C981        C  0.18295237  0.62292070  0.96546992    -0.21900
C982        C  0.17883002  0.60682136  0.00048413     0.10000
C983        C  0.17578282  0.62121050  0.03451077     0.10400
C984        C  0.17834822  0.65219971  0.03293825    -0.16900
C985        C  0.18452135  0.66945673  0.99818653    -0.27300
C986        C  0.18586967  0.65407940  0.96375292     0.18800
C987        C  0.18169836  0.57694364  0.00132678     0.12700
C988        C  0.17040076  0.60407373  0.07252513    -0.11600
H989        H  0.17697320  0.66361219  0.05932336     0.13000
C990        C  0.19019659  0.67002126  0.92505210    -0.22500
H991        H  0.18516016  0.61152621  0.93948584     0.08600
C992        C  0.15578037  0.54573574  0.99017144     0.05000
C993        C  0.16062176  0.51860054  0.99068738    -0.19700
C994        C  0.19074336  0.52207043  0.00244782    -0.12000
C995        C  0.21680451  0.55367715  0.01323520     0.13700
C996        C  0.21184480  0.58058876  0.01245458    -0.22400
C997        C  0.12307290  0.54113965  0.97811227    -0.05500
H998        H  0.14074165  0.49455151  0.98221597     0.15200
C999        C  0.25042208  0.55976676  0.02410268    -0.15700
H1000       H  0.23172083  0.60483371  0.02036056     0.09500
H1001       H  0.17108203  0.67687471  0.92079664     0.07400
H1002       H  0.18782642  0.65315626  0.90139631     0.08600
H1003       H  0.21501007  0.69218815  0.92269321     0.07700
H1004       H  0.19147302  0.60062270  0.07919244     0.02500
H1005       H  0.14752102  0.57965900  0.07138543     0.03000
H1006       H  0.16798463  0.61845939  0.09623461     0.06500
H1007       H  0.10528178  0.51507766  0.97078950     0.05500
H1008       H  0.12626439  0.55645403  0.95250955    -0.00300
H1009       H  0.11254280  0.54864651  0.00182165     0.01200
H1010       H  0.26022139  0.55103669  0.00083834     0.04900
H1011       H  0.24905763  0.54686808  0.05123086     0.06800
H1012       H  0.26823632  0.58634115  0.02871925     0.07700
C1013       C  0.96635680  0.70889997  0.03342802    -0.21900
C1014       C  0.98329140  0.71221882  0.99920103     0.10000
C1015       C  0.96543738  0.69762491  0.96544706     0.10400
C1016       C  0.93104300  0.67851027  0.96709089    -0.16900
C1017       C  0.91388278  0.67324347  0.00179270    -0.27300
C1018       C  0.93189040  0.68941031  0.03541846     0.18800
C1019       C  0.01937955  0.72617506  0.00055738     0.12700
C1020       C  0.98281572  0.70135662  0.92793133    -0.11600
H1021       H  0.91747492  0.66656263  0.94123780     0.13000
C1022       C  0.91654065  0.68520639  0.07446588    -0.22500
H1023       H  0.98030841  0.71999399  0.05935289     0.08600
C1024       C  0.04204869  0.76010359  0.99665239     0.05000
C1025       C  0.07595333  0.77130609  0.99758713    -0.19700
C1026       C  0.08761904  0.74929535  0.00266587    -0.12000
C1027       C  0.06456892  0.71514720  0.00612241     0.13700
C1028       C  0.03086081  0.70419018  0.00516192    -0.22400
C1029       C  0.03040645  0.78429222  0.99137243    -0.05500
H1030       H  0.09341779  0.79740890  0.99473772     0.15200
C1031       C  0.07501753  0.68978405  0.00937472    -0.15700
H1032       H  0.01314619  0.67811305  0.00771964     0.09500
H1033       H  0.92142012  0.70949137  0.08515757     0.07400
H1034       H  0.92767467  0.67539059  0.09469192     0.08600
H1035       H  0.88978084  0.66811472  0.07505124     0.07700
H1036       H  0.99909352  0.69076251  0.93027375     0.02500
H1037       H  0.99785274  0.72784237  0.92044255     0.03000
H1038       H  0.96518760  0.68855484  0.90420007     0.06500
H1039       H  0.05130690  0.80992021  0.98863142     0.05500
H1040       H  0.01537502  0.78321025  0.01642316    -0.00300
H1041       H  0.01523229  0.77814749  0.96502388     0.01200
H1042       H  0.08800231  0.69277275  0.03689454     0.04900
H1043       H  0.09132638  0.69237753  0.98502215     0.06800
H1044       H  0.05363109  0.66429320  0.00874233     0.07700
C1045       C  0.23766153  0.79983431  0.79350810    -0.21900
C1046       C  0.21301570  0.80318131  0.77557870     0.10000
C1047       C  0.19014977  0.80679892  0.79785730     0.10400
C1048       C  0.19198065  0.80613296  0.83797203    -0.16900
C1049       C  0.21595878  0.80151409  0.85634981    -0.27300
C1050       C  0.23957205  0.79895728  0.83354013     0.18800
C1051       C  0.21088595  0.80096307  0.73334310     0.12700
C1052       C  0.16363447  0.81090778  0.77923985    -0.11600
H1053       H  0.17395991  0.80833984  0.85498665     0.13000
C1054       C  0.26715776  0.79567032  0.85064441    -0.22500
H1055       H  0.25519295  0.79728738  0.77587706     0.08600
C1056       C  0.22978162  0.82859614  0.70999203     0.05000
C1057       C  0.22936723  0.82446783  0.67015412    -0.19700
C1058       C  0.21076230  0.79320427  0.65301130    -0.12000
C1059       C  0.19131225  0.76552973  0.67682559     0.13700
C1060       C  0.19166110  0.76993047  0.71664276    -0.22400
C1061       C  0.25077846  0.86229196  0.72722764    -0.05500
H1062       H  0.24407335  0.84585507  0.65237172     0.15200
C1063       C  0.17105248  0.73107264  0.66116119    -0.15700
H1064       H  0.17748349  0.74886996  0.73511648     0.09500
H1065       H  0.28155017  0.81625452  0.87087899     0.07400
H1066       H  0.28436744  0.79645479  0.82835875     0.08600
H1067       H  0.25714086  0.77171766  0.86564822     0.07700
H1068       H  0.14783520  0.78909706  0.76118872     0.02500
H1069       H  0.17492996  0.83327829  0.76099134     0.03000
H1070       H  0.14777277  0.81351112  0.80081589     0.06500
H1071       H  0.26401065  0.88130809  0.70490209     0.05500
H1072       H  0.26933400  0.86217359  0.74668902    -0.00300
H1073       H  0.23513860  0.86931195  0.74375296     0.01200
H1074       H  0.18704669  0.72424360  0.64504445     0.04900
H1075       H  0.15140344  0.72946336  0.64220146     0.06800
H1076       H  0.15884261  0.71262596  0.68432109     0.07700
C1077       C  0.21502307  0.76639501  0.29368755    -0.21900
C1078       C  0.21155211  0.79107595  0.27589526     0.10000
C1079       C  0.20848759  0.81424989  0.29830836     0.10400
C1080       C  0.20965475  0.81261714  0.33835477    -0.16900
C1081       C  0.21395036  0.78837609  0.35655734    -0.27300
C1082       C  0.21627684  0.76463467  0.33372193     0.18800
C1083       C  0.21189419  0.79242210  0.23359616     0.12700
C1084       C  0.20443679  0.84090983  0.27989467    -0.11600
H1085       H  0.20769391  0.83075031  0.35550022     0.13000
C1086       C  0.21928776  0.73688036  0.35091026    -0.22500
H1087       H  0.21703564  0.74855811  0.27598416     0.08600
C1088       C  0.24167576  0.80677587  0.21302716     0.05000
C1089       C  0.24086613  0.80602521  0.17288524    -0.19700
C1090       C  0.21091190  0.79111566  0.15278558    -0.12000
C1091       C  0.18102450  0.77768643  0.17366258     0.13700
C1092       C  0.18198434  0.77840526  0.21387196    -0.22400
C1093       C  0.27427161  0.82293517  0.23352089    -0.05500
H1094       H  0.26380422  0.81668703  0.15713550     0.15200
C1095       C  0.14811025  0.76347762  0.15406335    -0.15700
H1096       H  0.15929176  0.76781402  0.23012084     0.09500
H1097       H  0.24308200  0.74680959  0.36617025     0.07400
H1098       H  0.21854302  0.71964455  0.32864395     0.08600
H1099       H  0.19861269  0.72252367  0.37101187     0.07700
H1100       H  0.18162097  0.82968400  0.26245896     0.02500
H1101       H  0.22583039  0.85624638  0.26110217     0.03000
H1102       H  0.20271937  0.85725621  0.30157369     0.06500
H1103       H  0.29522513  0.83340430  0.21312110     0.05500
H1104       H  0.27611991  0.80461227  0.25171620    -0.00300
H1105       H  0.27650819  0.84324656  0.25186801     0.01200
H1106       H  0.14257365  0.74093135  0.13795277     0.04900
H1107       H  0.14822267  0.78197766  0.13424088     0.06800
H1108       H  0.12786443  0.75647037  0.17497059     0.07700
C1109       C  0.54581568  0.39125678  0.50635564    -0.21900
C1110       C  0.57603676  0.39551064  0.49424025     0.10000
C1111       C  0.57799467  0.36836933  0.48067536     0.10400
C1112       C  0.54971398  0.33723643  0.48044484    -0.16900
C1113       C  0.51948615  0.33240501  0.49387447    -0.27300
C1114       C  0.51734044  0.35992502  0.50634444     0.18800
C1115       C  0.60612738  0.42788801  0.49865560     0.12700
C1116       C  0.61007470  0.37218570  0.46693571    -0.11600
H1117       H  0.55151791  0.31634085  0.47070149     0.13000
C1118       C  0.48526204  0.35670205  0.51891155    -0.22500
H1119       H  0.54471715  0.41243076  0.51656050     0.08600
C1120       C  0.61706803  0.45205225  0.46985634     0.05000
C1121       C  0.64848117  0.48007139  0.47290434    -0.19700
C1122       C  0.66935470  0.48419434  0.50393102    -0.12000
C1123       C  0.65718693  0.46044716  0.53397303     0.13700
C1124       C  0.62566799  0.43279539  0.53082683    -0.22400
C1125       C  0.59597087  0.44768085  0.43545674    -0.05500
H1126       H  0.65719184  0.49811421  0.45006016     0.15200
C1127       C  0.67688921  0.46329326  0.56935982    -0.15700
H1128       H  0.61665421  0.41395883  0.55283755     0.09500
H1129       H  0.48792265  0.38106529  0.52519981     0.07400
H1130       H  0.47635148  0.34175063  0.54543327     0.08600
H1131       H  0.46668167  0.34492609  0.49583011     0.07700
H1132       H  0.62830040  0.38139957  0.49059525     0.02500
H1133       H  0.61975006  0.38990867  0.44275204     0.03000
H1134       H  0.60711178  0.34844559  0.45685907     0.06500
H1135       H  0.60824511  0.46885374  0.41544594     0.05500
H1136       H  0.57246918  0.44551299  0.44490570    -0.00300
H1137       H  0.59064310  0.42502564  0.41967575     0.01200
H1138       H  0.68505365  0.48725336  0.58372331     0.04900
H1139       H  0.69840290  0.46086242  0.56166066     0.06800
H1140       H  0.66223683  0.44358020  0.59048157     0.07700
C1141       C  0.62753670  0.18440748  0.52943720    -0.21900
C1142       C  0.61192422  0.18237154  0.49457826     0.10000
C1143       C  0.62643015  0.18083595  0.45990682     0.10400
C1144       C  0.65694157  0.18244556  0.46082410    -0.16900
C1145       C  0.67321325  0.18549888  0.49564328    -0.27300
C1146       C  0.65806338  0.18601177  0.53048745     0.18800
C1147       C  0.58204991  0.18510423  0.49494073     0.12700
C1148       C  0.60987600  0.17792268  0.42200822    -0.11600
H1149       H  0.66850275  0.18200145  0.43414793     0.13000
C1150       C  0.67470445  0.19022326  0.56865684    -0.22500
H1151       H  0.61625609  0.18591009  0.55585732     0.08600
C1152       C  0.55096583  0.15838366  0.50484174     0.05000
C1153       C  0.52366913  0.16281036  0.50540579    -0.19700
C1154       C  0.52693429  0.19345677  0.49663880    -0.12000
C1155       C  0.55856589  0.22060877  0.48827065     0.13700
C1156       C  0.58549122  0.21577358  0.48673035    -0.22400
C1157       C  0.54662237  0.12521450  0.51427488    -0.05500
H1158       H  0.49959175  0.14213962  0.51220723     0.15200
C1159       C  0.56552824  0.25539066  0.48281833    -0.15700
H1160       H  0.60968177  0.23640729  0.48014074     0.09500
H1161       H  0.65999867  0.19178549  0.59256976     0.07400
H1162       H  0.69902680  0.21325020  0.56865712     0.08600
H1163       H  0.67796427  0.16886540  0.57436006     0.07700
H1164       H  0.60707633  0.19969854  0.41739385     0.02500
H1165       H  0.58522847  0.15531132  0.42179794     0.03000
H1166       H  0.62429537  0.17644783  0.39770736     0.06500
H1167       H  0.52059711  0.10685289  0.52087848     0.05500
H1168       H  0.56172408  0.12728355  0.53966240    -0.00300
H1169       H  0.55448777  0.11602215  0.48952388     0.01200
H1170       H  0.58577450  0.27219247  0.50226490     0.04900
H1171       H  0.54445674  0.25862234  0.48978039     0.06800
H1172       H  0.57328545  0.26327867  0.45279241     0.07700
C1173       C  0.32147340  0.03209104  0.53362878    -0.21900
C1174       C  0.30595610  0.01664666  0.49935585     0.10000
C1175       C  0.30912124  0.03566777  0.46679030     0.10400
C1176       C  0.32873938  0.07004271  0.46894223    -0.16900
C1177       C  0.34575505  0.08561716  0.50272775    -0.27300
C1178       C  0.34159190  0.06636715  0.53576718     0.18800
C1179       C  0.28926749  0.98043806  0.49754573     0.12700
C1180       C  0.29254042  0.01958020  0.42963067    -0.11600
H1181       H  0.33179528  0.08472242  0.44369042     0.13000
C1182       C  0.35788610  0.08155946  0.57346436    -0.22500
H1183       H  0.31871126  0.01705397  0.55844905     0.08600
C1184       C  0.30752826  0.96470076  0.49126282     0.05000
C1185       C  0.29153217  0.93036435  0.49262676    -0.19700
C1186       C  0.25772725  0.91136133  0.50024386    -0.12000
C1187       C  0.23930529  0.92716483  0.50631073     0.13700
C1188       C  0.25540033  0.96167314  0.50452266    -0.22400
C1189       C  0.34396357  0.98418670  0.48344384    -0.05500
H1190       H  0.30558282  0.91820658  0.48796223     0.15200
C1191       C  0.20334183  0.90890057  0.51672049    -0.15700
H1192       H  0.24168230  0.97408704  0.50977668     0.09500
H1193       H  0.38494235  0.09303368  0.57093280     0.07400
H1194       H  0.34974955  0.06288727  0.59664302     0.08600
H1195       H  0.35157116  0.10036766  0.58224088     0.07700
H1196       H  0.26552863  0.00492606  0.43395077     0.02500
H1197       H  0.30142653  0.00305421  0.41960737     0.03000
H1198       H  0.29771995  0.03804181  0.40684456     0.06500
H1199       H  0.35437542  0.96792193  0.47880266     0.05500
H1200       H  0.35695202  0.00050100  0.50814169    -0.00300
H1201       H  0.34874152  0.99943394  0.45735365     0.01200
H1202       H  0.19989237  0.91837787  0.54442872     0.04900
H1203       H  0.19293459  0.88207161  0.52010207     0.06800
H1204       H  0.18914942  0.91301076  0.49423976     0.07700
C1205       C  0.26252782  0.29061746  0.46911592    -0.21900
C1206       C  0.27878204  0.28925069  0.50201985     0.10000
C1207       C  0.27917755  0.30646817  0.53522779     0.10400
C1208       C  0.26438466  0.32583830  0.53434175    -0.16900
C1209       C  0.24944871  0.32872983  0.50086953    -0.27300
C1210       C  0.24783794  0.31020047  0.46800281     0.18800
C1211       C  0.29936130  0.27386535  0.49949521     0.12700
C1212       C  0.29613406  0.30518053  0.57122719    -0.11600
H1213       H  0.26540491  0.33966607  0.55967472     0.13000
C1214       C  0.23258731  0.31240023  0.43100198    -0.22500
H1215       H  0.26271674  0.27750467  0.44365729     0.08600
C1216       C  0.28680199  0.24001644  0.50601396     0.05000
C1217       C  0.30835443  0.22757615  0.50503789    -0.19700
C1218       C  0.34205355  0.24843065  0.49782461    -0.12000
C1219       C  0.35415881  0.28209814  0.48949430     0.13700
C1220       C  0.33268584  0.29436395  0.49098539    -0.22400
C1221       C  0.25093931  0.21736146  0.51464248    -0.05500
H1222       H  0.29908182  0.20174893  0.51095628     0.15200
C1223       C  0.38922853  0.30575577  0.47773562    -0.15700
H1224       H  0.34200748  0.32025944  0.48532295     0.09500
H1225       H  0.23492263  0.29740385  0.40797914     0.07400
H1226       H  0.24498528  0.33834339  0.42102871     0.08600
H1227       H  0.20599062  0.30307889  0.43528863     0.07700
H1228       H  0.32268184  0.31517264  0.56554526     0.02500
H1229       H  0.28495614  0.27930294  0.58111583     0.03000
H1230       H  0.29391882  0.31987159  0.59471477     0.06500
H1231       H  0.24517708  0.19163774  0.51923550     0.05500
H1232       H  0.23584847  0.21749426  0.49031232    -0.00300
H1233       H  0.24409180  0.22575085  0.54096298     0.01200
H1234       H  0.38934735  0.31753924  0.45013234     0.04900
H1235       H  0.40407805  0.29387306  0.47318886     0.06800
H1236       H  0.40135839  0.32521507  0.49986990     0.07700
C1237       C  0.39971841  0.21276957  0.78914861    -0.21900
C1238       C  0.42151770  0.20547788  0.77034316     0.10000
C1239       C  0.44182923  0.19754870  0.79192425     0.10400
C1240       C  0.44051309  0.19797485  0.83205692    -0.16900
C1241       C  0.41934069  0.20615139  0.85111985    -0.27300
C1242       C  0.39788649  0.21264480  0.82929774     0.18800
C1243       C  0.42291794  0.20659202  0.72797396     0.12700
C1244       C  0.46492041  0.18874637  0.77255915    -0.11600
H1245       H  0.45665517  0.19259143  0.84866903     0.13000
C1246       C  0.37184635  0.21813316  0.84696124    -0.22500
H1247       H  0.38371194  0.21820032  0.77231308     0.08600
C1248       C  0.40044228  0.17964172  0.70550002     0.05000
C1249       C  0.40314686  0.18181978  0.66541282    -0.19700
C1250       C  0.42762361  0.21046401  0.64739195    -0.12000
C1251       C  0.45045029  0.23730896  0.67008132     0.13700
C1252       C  0.44756011  0.23506931  0.71011248    -0.22400
C1253       C  0.37375816  0.14863986  0.72387464    -0.05500
H1254       H  0.38581953  0.16122293  0.64799764     0.15200
C1255       C  0.47892616  0.26809905  0.65341020    -0.15700
H1256       H  0.46500045  0.25553294  0.72761853     0.09500
H1257       H  0.34751657  0.20027054  0.83459909     0.07400
H1258       H  0.37724693  0.24346320  0.84042241     0.08600
H1259       H  0.36962904  0.21448900  0.87836843     0.07700
H1260       H  0.48290393  0.20970422  0.75477887     0.02500
H1261       H  0.45074298  0.16686627  0.75395689     0.03000
H1262       H  0.47883007  0.18287336  0.79367283     0.06500
H1263       H  0.35839468  0.12983840  0.70216255     0.05500
H1264       H  0.35748382  0.15432758  0.74117112    -0.00300
H1265       H  0.38489003  0.13795687  0.74280007     0.01200
H1266       H  0.47642525  0.28965960  0.66085181     0.04900
H1267       H  0.48094681  0.26721124  0.62189324     0.06800
H1268       H  0.50227042  0.27178917  0.66572540     0.07700
C1269       C  0.43310621  0.19690597  0.20977990    -0.21900
C1270       C  0.41132476  0.20448168  0.22803120     0.10000
C1271       C  0.39068831  0.21168039  0.20602631     0.10400
C1272       C  0.39249557  0.21134267  0.16590816    -0.16900
C1273       C  0.41478545  0.20438503  0.14746254    -0.27300
C1274       C  0.43487850  0.19632666  0.16974107     0.18800
C1275       C  0.41121259  0.20533865  0.27032590     0.12700
C1276       C  0.36717804  0.22013949  0.22491978    -0.11600
H1277       H  0.37705862  0.21739594  0.14885552     0.13000
C1278       C  0.45757004  0.18583643  0.15266124    -0.22500
H1279       H  0.44864337  0.19107953  0.22698792     0.08600
C1280       C  0.39186013  0.17670687  0.29215191     0.05000
C1281       C  0.39411868  0.17851996  0.33226451    -0.19700
C1282       C  0.41545135  0.20829392  0.35087577    -0.12000
C1283       C  0.43385797  0.23729124  0.32881648     0.13700
C1284       C  0.43181376  0.23524334  0.28876813    -0.22400
C1285       C  0.36923256  0.14425836  0.27304168    -0.05500
H1286       H  0.37983320  0.15641467  0.34914379     0.15200
C1287       C  0.45497107  0.27098877  0.34618128    -0.15700
H1288       H  0.44626681  0.25722478  0.27172021     0.09500
H1289       H  0.45164530  0.16166498  0.16486395     0.07400
H1290       H  0.48342854  0.20425086  0.15988224     0.08600
H1291       H  0.45534435  0.18268148  0.12119070     0.07700
H1292       H  0.38105463  0.24246173  0.24294532     0.02500
H1293       H  0.34962869  0.19936435  0.24323090     0.03000
H1294       H  0.35282266  0.22513089  0.20350074     0.06500
H1295       H  0.35583779  0.12430054  0.29431922     0.05500
H1296       H  0.38365601  0.13714735  0.25429768    -0.00300
H1297       H  0.35081380  0.14640509  0.25542402     0.01200
H1298       H  0.48109709  0.28054180  0.33842951     0.04900
H1299       H  0.45294319  0.27140350  0.37773264     0.06800
H1300       H  0.44724866  0.28802335  0.33465125     0.07700
C1301       C  0.57960193  0.36790741  0.99920064    -0.21900
C1302       C  0.57544165  0.39527040  0.99709685     0.10000
C1303       C  0.54349418  0.39052715  0.99398908     0.10400
C1304       C  0.51628003  0.35829532  0.99357403    -0.16900
C1305       C  0.52042655  0.33085414  0.99657755    -0.27300
C1306       C  0.55265013  0.33577589  0.99868029     0.18800
C1307       C  0.60530291  0.42844959  0.99812910     0.12700
C1308       C  0.53816530  0.41942743  0.99208891    -0.11600
H1309       H  0.49164708  0.35450457  0.99186402     0.13000
C1310       C  0.55991284  0.30799376  0.99906999    -0.22500
H1311       H  0.60425710  0.37170878  0.00095186     0.08600
C1312       C  0.62319131  0.44125722  0.03232990     0.05000
C1313       C  0.65384192  0.47035299  0.03112689    -0.19700
C1314       C  0.66731667  0.48712106  0.99649101    -0.12000
C1315       C  0.64842188  0.47504359  0.96241505     0.13700
C1316       C  0.61768380  0.44578514  0.96377395    -0.22400
C1317       C  0.61008677  0.42398521  0.07008292    -0.05500
H1318       H  0.66773210  0.47964849  0.05745353     0.15200
C1319       C  0.66085818  0.49171548  0.92422587    -0.15700
H1320       H  0.60371912  0.43565089  0.93763872     0.09500
H1321       H  0.57158886  0.30807505  0.02672571     0.07400
H1322       H  0.57720175  0.31158172  0.97544340     0.08600
H1323       H  0.53795387  0.28338560  0.99476554     0.07700
H1324       H  0.55047185  0.43444275  0.96630964     0.02500
H1325       H  0.54856573  0.43490180  0.01808995     0.03000
H1326       H  0.51163225  0.41141828  0.99045882     0.06500
H1327       H  0.62682614  0.43774262  0.09419680     0.05500
H1328       H  0.60723612  0.39911458  0.06922403    -0.00300
H1329       H  0.58583518  0.42161176  0.07594806     0.01200
H1330       H  0.68442098  0.49298478  0.91709747     0.04900
H1331       H  0.66445586  0.51689565  0.92515898     0.06800
H1332       H  0.64321071  0.47816733  0.90074292     0.07700
C1333       C  0.56670637  0.18907189  0.03130897    -0.21900
C1334       C  0.57513665  0.18086747  0.99630006     0.10000
C1335       C  0.55382707  0.17257760  0.96471517     0.10400
C1336       C  0.52538617  0.17482167  0.96817849    -0.16900
C1337       C  0.51781337  0.18526071  0.00255137    -0.27300
C1338       C  0.53831114  0.19135907  0.03502718     0.18800
C1339       C  0.60798013  0.18441838  0.99263962     0.12700
C1340       C  0.56146900  0.16195350  0.92726426    -0.11600
H1341       H  0.50967480  0.16955338  0.94336769     0.13000
C1342       C  0.53074483  0.20020613  0.07375618    -0.22500
H1343       H  0.58319470  0.19494898  0.05549488     0.08600
C1344       C  0.63519806  0.21462765  0.98115772     0.05000
C1345       C  0.66643052  0.21800503  0.98033193    -0.19700
C1346       C  0.67132388  0.19210206  0.99145827    -0.12000
C1347       C  0.64376313  0.16155734  0.00252533     0.13700
C1348       C  0.61236791  0.15814804  0.00285403    -0.22400
C1349       C  0.63137324  0.24357830  0.97062542    -0.05500
H1350       H  0.68733337  0.24144250  0.97196155     0.15200
C1351       C  0.64694602  0.13230026  0.01336638    -0.15700
H1352       H  0.59117703  0.13508012  0.01165340     0.09500
H1353       H  0.54801193  0.20125641  0.09611457     0.07400
H1354       H  0.50551305  0.18138012  0.08273247     0.08600
H1355       H  0.53309720  0.22485724  0.07274773     0.07700
H1356       H  0.56311235  0.13949506  0.93184169     0.02500
H1357       H  0.58523529  0.18178147  0.91574887     0.03000
H1358       H  0.54216184  0.15624578  0.90544843     0.11300
H1359       H  0.65522543  0.26544206  0.96254270     0.05500
H1360       H  0.62128681  0.25046764  0.99536992    -0.00300
H1361       H  0.61438736  0.23712692  0.94592918     0.01200
H1362       H  0.66149971  0.13754768  0.04009135     0.04900
H1363       H  0.65904727  0.12649089  0.98981699     0.06800
H1364       H  0.62259236  0.11005196  0.01867666     0.07700
C1365       C  0.32119164  0.02978911  0.98178582    -0.21900
C1366       C  0.29330710  0.01782341  0.00493027     0.10000
C1367       C  0.28682563  0.03998079  0.02472840     0.10400
C1368       C  0.30893909  0.07392817  0.02128666    -0.16900
C1369       C  0.33750434  0.08629049  0.99853654    -0.27300
C1370       C  0.34328821  0.06355664  0.97791994     0.18800
C1371       C  0.27257556  0.98177128  0.00901367     0.12700
C1372       C  0.25653443  0.02781291  0.04918109    -0.11600
H1373       H  0.30397529  0.09081938  0.03696862     0.13000
C1374       C  0.37247106  0.07393893  0.95183039    -0.22500
H1375       H  0.32588053  0.01230317  0.96694829     0.08600
C1376       C  0.25403377  0.96181984  0.97799566     0.05000
C1377       C  0.24037021  0.92765649  0.98047041    -0.19700
C1378       C  0.24467510  0.91306316  0.01337645    -0.12000
C1379       C  0.26029364  0.93291388  0.04593783     0.13700
C1380       C  0.27486449  0.96714334  0.04288798    -0.22400
C1381       C  0.24921477  0.97661664  0.94205770    -0.05500
H1382       H  0.22771180  0.91250450  0.95583130     0.15200
C1383       C  0.26164138  0.91911787  0.08445479    -0.15700
H1384       H  0.28870416  0.98259751  0.06687609     0.09500
H1385       H  0.37249017  0.09025073  0.92885850     0.07400
H1386       H  0.37191003  0.05255799  0.93756281     0.08600
H1387       H  0.39563769  0.08668886  0.96856908     0.07700
H1388       H  0.25703863  0.01245815  0.07296983     0.02500
H1389       H  0.23427684  0.01286867  0.03144744     0.03000
H1390       H  0.25475782  0.04848312  0.06191894     0.06500
H1391       H  0.23322260  0.95737261  0.92109401     0.05500
H1392       H  0.27319401  0.99285688  0.92798938    -0.00300
H1393       H  0.23744309  0.99122852  0.94939639     0.01200
H1394       H  0.28744294  0.92647038  0.09136270     0.04900
H1395       H  0.24606198  0.89199362  0.08611465     0.06800
H1396       H  0.25233698  0.92917155  0.10679605     0.07700
C1397       C  0.30685744  0.33786833  0.00174039    -0.21900
C1398       C  0.28628020  0.30366527  0.00164674     0.10000
C1399       C  0.25189735  0.28995001  0.00243503     0.10400
C1400       C  0.23880103  0.31098267  0.00211763    -0.16900
C1401       C  0.25940167  0.34540501  0.00063626    -0.27300
C1402       C  0.29403029  0.35898077  0.00116082     0.18800
C1403       C  0.30187224  0.28315305  0.99989251     0.12700
C1404       C  0.22917565  0.25321518  0.00290217    -0.11600
H1405       H  0.21236898  0.30047228  0.00214955     0.13000
C1406       C  0.31787368  0.39562591  0.00212387    -0.22500
H1407       H  0.33326249  0.34807363  0.00174057     0.08600
C1408       C  0.31559854  0.27984956  0.96544618     0.05000
C1409       C  0.33412960  0.26413768  0.96592152    -0.19700
C1410       C  0.33920940  0.25149572  0.00001463    -0.12000
C1411       C  0.32438437  0.25377763  0.03435643     0.13700
C1412       C  0.30591739  0.26967019  0.03379435    -0.22400
C1413       C  0.31098640  0.29325778  0.92825265    -0.05500
H1414       H  0.34519403  0.26217345  0.93955805     0.15200
C1415       C  0.32932294  0.24120259  0.07201708    -0.15700
H1416       H  0.29548983  0.27261058  0.06014830     0.09500
H1417       H  0.31675099  0.40712281  0.97486605     0.07400
H1418       H  0.34366702  0.40140676  0.00566001     0.08600
H1419       H  0.31201958  0.40687278  0.02659459     0.07700
H1420       H  0.23378999  0.24262170  0.02893694     0.02500
H1421       H  0.23351292  0.24214084  0.97708263     0.03000
H1422       H  0.20295597  0.24650826  0.00306454     0.06500
H1423       H  0.32277394  0.28796671  0.90388371     0.05500
H1424       H  0.32208473  0.32035490  0.93027752    -0.00300
H1425       H  0.28434466  0.28183917  0.92194631     0.01200
H1426       H  0.35597682  0.25310359  0.07853308     0.04900
H1427       H  0.31842025  0.21410199  0.07067167     0.06800
H1428       H  0.31733026  0.24660193  0.09607116     0.07700
loop_ 
_geom_bond_atom_site_label_1 
_geom_bond_atom_site_label_2 
_geom_bond_distance 
_geom_bond_site_symmetry_2 
_ccdc_geom_bond_type 
Zn1           O5   1.964   1_554  S
Zn1           O6   2.018       .  S
Zn1          O10   2.027       .  S
Zn1          O17   2.023       .  S
Zn2           O5   1.946   1_554  S
Zn2           O7   2.003       .  S
Zn2           O9   2.005       .  S
Zn2          O13   2.001       .  S
Zn3           O5   1.948       .  S
Zn3           O8   1.988       .  S
Zn3          O11   2.015       .  S
Zn3          O14   2.007       .  S
Zn4           O5   1.955       .  S
Zn4          O12   2.026       .  S
Zn4          O15   2.034       .  S
Zn4          O16   2.016       .  S
O6           C18   1.273       .  A
O7           C19   1.270       .  A
O8           C20   1.269       .  A
O9           C18   1.272       .  A
O10          C20   1.276   1_554  A
O11          C19   1.273   1_556  A
O12          C21   1.274       .  A
O13          C22   1.272   1_554  A
O14          C21   1.272       .  A
O15          C22   1.275       .  A
O16          C23   1.275       .  A
O17          C23   1.274   1_554  A
C18        C1273   1.475       .  S
C19        C1337   1.488       .  S
C20        C1369   1.492       .  S
C21        C1241   1.479       .  S
C22        C1305   1.477       .  S
C23        C1410   1.483   1_556  S
Zn24         O28   1.962       .  S
Zn24         O29   2.019       .  S
Zn24         O33   2.022       .  S
Zn24         O40   2.025       .  S
Zn25         O28   1.948       .  S
Zn25         O30   2.022       .  S
Zn25         O32   1.999       .  S
Zn25         O36   2.013       .  S
Zn26         O28   1.945       .  S
Zn26         O31   2.000       .  S
Zn26         O34   1.999       .  S
Zn26         O37   1.989       .  S
Zn27         O28   1.951       .  S
Zn27         O35   2.016       .  S
Zn27         O38   2.020       .  S
Zn27         O39   1.998       .  S
O29          C41   1.275       .  A
O30          C42   1.274       .  A
O31          C43   1.271       .  A
O32          C41   1.272       .  A
O33          C43   1.273       .  A
O34          C42   1.271       .  A
O35          C44   1.272       .  A
O36          C45   1.272       .  A
O37          C44   1.271       .  A
O38          C45   1.273       .  A
O39          C46   1.273       .  A
O40          C46   1.274       .  A
C41        C1177   1.478       .  S
C42        C1154   1.477       .  S
C43        C1282   1.476       .  S
C44        C1113   1.480       .  S
C45        C1250   1.476       .  S
C46        C1218   1.474       .  S
Zn47         O51   1.943   1_556  S
Zn47         O52   2.012       .  S
Zn47         O56   2.004       .  S
Zn47         O63   2.002       .  S
Zn48         O51   1.960       .  S
Zn48         O53   2.005       .  S
Zn48         O55   2.034       .  S
Zn48         O59   2.013       .  S
Zn49         O51   1.965   1_556  S
Zn49         O54   2.026       .  S
Zn49         O57   2.010       .  S
Zn49         O60   2.029       .  S
Zn50         O51   1.951       .  S
Zn50         O58   2.010       .  S
Zn50         O61   2.011       .  S
Zn50         O62   2.025       .  S
O52          C64   1.272   1_556  A
O53          C65   1.273       .  A
O54          C66   1.275       .  A
O55          C64   1.274       .  A
O56          C66   1.272       .  A
O57          C65   1.274   1_556  A
O58          C67   1.272       .  A
O59          C68   1.274       .  A
O60          C67   1.274   1_556  A
O61          C68   1.272       .  A
O62          C69   1.275   1_554  A
O63          C69   1.271       .  A
C64         C953   1.483       .  S
C65        C1378   1.478       .  S
C66        C1049   1.490       .  S
C67        C1026   1.487       .  S
C68        C1090   1.483       .  S
C69         C985   1.485       .  S
Zn70         O74   1.948       .  S
Zn70         O75   1.988       .  S
Zn70         O79   2.020       .  S
Zn70         O86   2.012       .  S
Zn71         O74   1.962       .  S
Zn71         O76   2.019       .  S
Zn71         O78   2.027       .  S
Zn71         O82   2.029       .  S
Zn72         O74   1.943       .  S
Zn72         O77   2.006       .  S
Zn72         O80   2.003       .  S
Zn72         O83   1.996       .  S
Zn73         O74   1.947       .  S
Zn73         O81   2.023       .  S
Zn73         O84   2.006       .  S
Zn73         O85   2.015       .  S
O75          C87   1.272       .  A
O76          C88   1.274       .  A
O77          C89   1.273       .  A
O78          C87   1.275       .  A
O79          C89   1.272       .  A
O80          C88   1.271       .  A
O81          C90   1.274       .  A
O82          C91   1.275       .  A
O83          C90   1.271       .  A
O84          C91   1.274       .  A
O85          C92   1.272       .  A
O86          C92   1.274       .  A
C87        C1186   1.471       .  S
C88        C1081   1.486       .  S
C89         C866   1.479       .  S
C90         C889   1.472       .  S
C91         C930   1.486       .  S
C92        C1058   1.491       .  S
Zn93         O97   1.942   1_554  S
Zn93         O98   2.007       .  S
Zn93        O102   1.990       .  S
Zn93        O109   1.991       .  S
Zn94         O97   1.954       .  S
Zn94         O99   2.005       .  S
Zn94        O101   2.032       .  S
Zn94        O105   2.008       .  S
Zn95         O97   1.969   1_554  S
Zn95        O100   2.029       .  S
Zn95        O103   2.038       .  S
Zn95        O106   2.043       .  S
Zn96         O97   1.958       .  S
Zn96        O104   2.016       .  S
Zn96        O107   2.012       .  S
Zn96        O108   2.036       .  S
O98         C110   1.272   1_554  A
O99         C111   1.272       .  A
O100        C112   1.275       .  A
O101        C110   1.273       .  A
O102        C112   1.271       .  A
O103        C111   1.277   1_554  A
O104        C113   1.275   1_556  A
O105        C114   1.274       .  A
O106        C113   1.276       .  A
O107        C114   1.272       .  A
O108        C115   1.275   1_556  A
O109        C115   1.269       .  A
C110       C1314   1.491       .  S
C111        C770   1.496   1_556  S
C112        C825   1.476       .  S
C113       C1017   1.487       .  S
C114        C793   1.488       .  S
C115        C738   1.489       .  S
Zn116       O120   1.951       .  S
Zn116       O121   2.022       .  S
Zn116       O125   1.995       .  S
Zn116       O132   2.009       .  S
Zn117       O120   1.938       .  S
Zn117       O122   1.988       .  S
Zn117       O124   1.994       .  S
Zn117       O128   1.979       .  S
Zn118       O120   1.969       .  S
Zn118       O123   2.039       .  S
Zn118       O126   2.030       .  S
Zn118       O129   2.043       .  S
Zn119       O120   1.955       .  S
Zn119       O127   2.000       .  S
Zn119       O130   2.029       .  S
Zn119       O131   2.014       .  S
O121        C133   1.273       .  A
O122        C134   1.269       .  A
O123        C135   1.277       .  A
O124        C133   1.269       .  A
O125        C135   1.271       .  A
O126        C134   1.275       .  A
O127        C136   1.274       .  A
O128        C137   1.267       .  A
O129        C136   1.276       .  A
O130        C137   1.274       .  A
O131        C138   1.272       .  A
O132        C138   1.273       .  A
C133        C665   1.478       .  S
C134        C802   1.481       .  S
C135        C921   1.481       .  S
C136        C706   1.492       .  S
C137       C1122   1.489       .  S
C138        C834   1.481       .  S
Zn139       O143   1.952   1_556  S
Zn139       O144   2.017       .  S
Zn139       O148   2.005       .  S
Zn139       O155   2.007       .  S
Zn140       O143   1.953       .  S
Zn140       O145   2.008       .  S
Zn140       O147   2.022       .  S
Zn140       O151   2.002       .  S
Zn141       O143   1.954       .  S
Zn141       O146   2.011       .  S
Zn141       O149   2.011       .  S
Zn141       O152   2.006       .  S
Zn142       O143   1.967   1_556  S
Zn142       O150   2.036       .  S
Zn142       O153   2.027       .  S
Zn142       O154   2.029       .  S
O144        C156   1.273   1_556  A
O145        C157   1.272       .  A
O146        C158   1.273   1_554  A
O147        C156   1.273       .  A
O148        C158   1.271       .  A
O149        C157   1.272       .  A
O150        C159   1.276   1_556  A
O151        C160   1.272       .  A
O152        C159   1.272       .  A
O153        C160   1.275   1_556  A
O154        C161   1.275       .  A
O155        C161   1.273       .  A
C156        C962   1.481       .  S
C157        C633   1.475       .  S
C158        C546   1.487       .  S
C159        C761   1.489       .  S
C160        C569   1.480       .  S
C161        C601   1.478       .  S
Zn162       O166   1.962       .  S
Zn162       O167   2.034       .  S
Zn162       O171   2.032       .  S
Zn162       O178   2.015       .  S
Zn163       O166   1.950       .  S
Zn163       O168   2.007       .  S
Zn163       O170   2.004       .  S
Zn163       O174   2.007       .  S
Zn164       O166   1.949       .  S
Zn164       O169   2.004       .  S
Zn164       O172   2.014       .  S
Zn164       O175   2.003       .  S
Zn165       O166   1.966       .  S
Zn165       O173   2.030       .  S
Zn165       O176   2.017       .  S
Zn165       O177   2.027       .  S
O167        C179   1.275       .  A
O168        C180   1.272       .  A
O169        C181   1.273       .  A
O170        C179   1.271       .  A
O171        C181   1.275       .  A
O172        C180   1.272       .  A
O173        C182   1.275       .  A
O174        C183   1.273       .  A
O175        C182   1.271       .  A
O176        C183   1.273       .  A
O177        C184   1.274       .  A
O178        C184   1.276       .  A
C179        C473   1.479       .  S
C180        C857   1.475       .  S
C181        C610   1.482       .  S
C182        C505   1.487       .  S
C183        C642   1.477       .  S
C184        C697   1.498       .  S
Zn185       O189   1.945       .  S
Zn185       O190   2.007       .  S
Zn185       O194   1.995       .  S
Zn185       O201   2.002       .  S
Zn186       O189   1.953   1_554  S
Zn186       O191   2.003       .  S
Zn186       O193   2.014       .  S
Zn186       O197   2.008       .  S
Zn187       O189   1.965       .  S
Zn187       O192   2.022       .  S
Zn187       O195   2.025       .  S
Zn187       O198   2.023       .  S
Zn188       O189   1.955   1_554  S
Zn188       O196   2.008       .  S
Zn188       O199   2.006       .  S
Zn188       O200   2.026       .  S
O190        C202   1.273       .  A
O191        C203   1.272   1_554  A
O192        C204   1.275       .  A
O193        C202   1.271   1_554  A
O194        C204   1.270       .  A
O195        C203   1.274       .  A
O196        C205   1.274   1_554  A
O197        C206   1.272       .  A
O198        C205   1.273       .  A
O199        C206   1.273       .  A
O200        C207   1.274   1_554  A
O201        C207   1.270       .  A
C202       C1346   1.485       .  S
C203        C578   1.474       .  S
C204        C409   1.486       .  S
C205        C377   1.496       .  S
C206        C441   1.487       .  S
C207        C729   1.486       .  S
Zn208       O212   1.967       .  S
Zn208       O213   2.025       .  S
Zn208       O217   2.031       .  S
Zn208       O224   2.029       .  S
Zn209       O212   1.945       .  S
Zn209       O214   2.002       .  S
Zn209       O216   1.985       .  S
Zn209       O220   2.002       .  S
Zn210       O212   1.954       .  S
Zn210       O215   2.013       .  S
Zn210       O218   2.023       .  S
Zn210       O221   2.022       .  S
Zn211       O212   1.949       .  S
Zn211       O219   1.998       .  S
Zn211       O222   2.017       .  S
Zn211       O223   1.996       .  S
O213        C225   1.274       .  A
O214        C226   1.272       .  A
O215        C227   1.274       .  A
O216        C225   1.271       .  A
O217        C227   1.275       .  A
O218        C226   1.273       .  A
O219        C228   1.271       .  A
O220        C229   1.271       .  A
O221        C228   1.275       .  A
O222        C229   1.273       .  A
O223        C230   1.272       .  A
O224        C230   1.274       .  A
C225        C450   1.486       .  S
C226       C1145   1.479       .  S
C227        C514   1.477       .  S
C228        C418   1.484       .  S
C229        C674   1.478       .  S
C230        C345   1.484       .  S
Zn231       O235   1.944   1_554  S
Zn231       O236   1.993       .  S
Zn231       O240   2.001       .  S
Zn231       O247   1.998       .  S
Zn232       O235   1.953       .  S
Zn232       O237   2.020       .  S
Zn232       O239   2.035       .  S
Zn232       O243   2.000       .  S
Zn233       O235   1.947       .  S
Zn233       O238   2.009       .  S
Zn233       O241   2.012       .  S
Zn233       O244   1.995       .  S
Zn234       O235   1.970   1_554  S
Zn234       O242   2.043       .  S
Zn234       O245   2.038       .  S
Zn234       O246   2.032       .  S
O236        C248   1.269       .  A
O237        C249   1.274       .  A
O238        C250   1.271   1_556  A
O239        C248   1.274   1_556  A
O240        C250   1.272       .  A
O241        C249   1.272       .  A
O242        C251   1.277   1_554  A
O243        C252   1.272       .  A
O244        C251   1.271       .  A
O245        C252   1.278   1_554  A
O246        C253   1.275       .  A
O247        C253   1.271       .  A
C248        C994   1.483       .  S
C249        C290   1.478       .  S
C250        C537   1.479       .  S
C251       C1401   1.487   1_556  S
C252        C386   1.493       .  S
C253        C313   1.477       .  S
Zn254       O258   1.956       .  S
Zn254       O259   2.011       .  S
Zn254       O263   2.024       .  S
Zn254       O270   2.026       .  S
Zn255       O258   1.969       .  S
Zn255       O260   2.033       .  S
Zn255       O262   2.028       .  S
Zn255       O266   2.022       .  S
Zn256       O258   1.951       .  S
Zn256       O261   2.013       .  S
Zn256       O264   1.997       .  S
Zn256       O267   2.014       .  S
Zn257       O258   1.955       .  S
Zn257       O265   2.014       .  S
Zn257       O268   2.013       .  S
Zn257       O269   2.007       .  S
O259        C271   1.274       .  A
O260        C272   1.275       .  A
O261        C273   1.273       .  A
O262        C271   1.274       .  A
O263        C273   1.274       .  A
O264        C272   1.271       .  A
O265        C274   1.273       .  A
O266        C275   1.273       .  A
O267        C274   1.271       .  A
O268        C275   1.274       .  A
O269        C276   1.273       .  A
O270        C276   1.275       .  A
C271       C1209   1.485       .  S
C272        C354   1.478       .  S
C273        C281   1.480       .  S
C274        C898   1.485       .  S
C275        C322   1.484       .  S
C276        C482   1.483       .  S
C277        C278   1.401       .  A
C277        C282   1.404       .  A
C277        H287   1.085       .  S
C278        C283   1.480       .  S
C278        C279   1.409       .  A
C279        C280   1.402       .  A
C279        C284   1.507       .  S
C280        C281   1.405       .  A
C280        H285   1.084       .  S
C281        C282   1.419       .  A
C282        C286   1.508       .  S
C283        C288   1.410       .  A
C283        C292   1.400       .  A
C284        H300   1.110       .  S
C284        H301   1.110       .  S
C284        H302   1.111       .  S
C286        H297   1.111       .  S
C286        H298   1.110       .  S
C286        H299   1.106       .  S
C288        C289   1.403       .  A
C288        C293   1.506       .  S
C289        C290   1.404       .  A
C289        H294   1.084       .  S
C290        C291   1.419       .  A
C291        C292   1.404       .  A
C291        C295   1.509       .  S
C292        H296   1.085       .  S
C293        H303   1.111       .  S
C293        H304   1.110       .  S
C293        H305   1.110       .  S
C295        H306   1.110       .  S
C295        H307   1.106       .  S
C295        H308   1.111       .  S
C309        C310   1.400       .  A
C309        C314   1.402       .  A
C309        H319   1.084       .  S
C310        C315   1.479       .  S
C310        C311   1.410       .  A
C311        C312   1.404       .  A
C311        C316   1.506       .  S
C312        C313   1.404       .  A
C312        H317   1.084       .  S
C313        C314   1.416       .  A
C314        C318   1.508       .  S
C315        C320   1.409       .  A
C315        C324   1.399       .  A
C316        H332   1.110       .  S
C316        H333   1.110       .  S
C316        H334   1.111       .  S
C318        H329   1.109       .  S
C318        H330   1.111       .  S
C318        H331   1.110       .  S
C320        C321   1.402       .  A
C320        C325   1.507       .  S
C321        C322   1.407       .  A
C321        H326   1.084       .  S
C322        C323   1.422       .  A
C323        C324   1.405       .  A
C323        C327   1.509       .  S
C324        H328   1.085       .  S
C325        H335   1.111       .  S
C325        H336   1.110       .  S
C325        H337   1.110       .  S
C327        H338   1.111       .  S
C327        H339   1.105       .  S
C327        H340   1.110       .  S
C341        C342   1.400       .  A
C341        C346   1.405       .  A
C341        H351   1.084       .  S
C342        C347   1.479   1_655  S
C342        C343   1.409       .  A
C343        C344   1.401       .  A
C343        C348   1.507       .  S
C344        C345   1.407       .  A
C344        H349   1.084       .  S
C345        C346   1.418       .  A
C346        C350   1.507       .  S
C347        C352   1.410       .  A
C347        C356   1.399       .  A
C348        H364   1.110   1_655  S
C348        H365   1.110   1_655  S
C348        H366   1.111       .  S
C350        H361   1.111       .  S
C350        H362   1.110       .  S
C350        H363   1.110       .  S
C352        C353   1.406       .  A
C352        C357   1.505       .  S
C353        C354   1.405       .  A
C353        H358   1.084       .  S
C354        C355   1.417       .  A
C355        C356   1.401       .  A
C355        C359   1.509       .  S
C356        H360   1.084       .  S
C357        H367   1.111       .  S
C357        H368   1.110       .  S
C357        H369   1.110       .  S
C359        H370   1.111       .  S
C359        H371   1.110       .  S
C359        H372   1.109       .  S
C373        C374   1.399       .  A
C373        C378   1.408       .  A
C373        H383   1.084       .  S
C374        C379   1.478   1_655  S
C374        C375   1.407   1_556  A
C375        C376   1.399       .  A
C375        C380   1.508       .  S
C376        C377   1.410   1_554  A
C376        H381   1.083       .  S
C377        C378   1.425       .  A
C378        C382   1.508       .  S
C379        C384   1.407   1_556  A
C379        C388   1.397       .  A
C380        H396   1.110   1_655  S
C380        H397   1.110   1_655  S
C380        H398   1.111       .  S
C382        H393   1.111       .  S
C382        H394   1.110       .  S
C382        H395   1.110       .  S
C384        C385   1.405       .  A
C384        C389   1.506       .  S
C385        C386   1.410   1_554  A
C385        H390   1.083       .  S
C386        C387   1.425       .  A
C387        C388   1.402       .  A
C387        C391   1.510       .  S
C388        H392   1.085       .  S
C389        H399   1.111       .  S
C389        H400   1.110       .  S
C389        H401   1.110       .  S
C391        H402   1.111       .  S
C391        H403   1.110       .  S
C391        H404   1.109       .  S
C405        C406   1.398       .  A
C405        C410   1.402       .  A
C405        H415   1.085       .  S
C406        C411   1.476       .  S
C406        C407   1.407       .  A
C407        C408   1.402       .  A
C407        C412   1.506       .  S
C408        C409   1.408       .  A
C408        H413   1.084       .  S
C409        C410   1.422       .  A
C410        C414   1.509       .  S
C411        C416   1.408       .  A
C411        C420   1.398       .  A
C412        H428   1.110       .  S
C412        H429   1.110       .  S
C412        H430   1.111       .  S
C414        H425   1.109       .  S
C414        H426   1.111       .  S
C414        H427   1.110       .  S
C416        C417   1.402       .  A
C416        C421   1.507       .  S
C417        C418   1.407       .  A
C417        H422   1.084       .  S
C418        C419   1.422       .  A
C419        C420   1.403       .  A
C419        C423   1.509       .  S
C420        H424   1.084       .  S
C421        H431   1.111       .  S
C421        H432   1.110       .  S
C421        H433   1.110       .  S
C423        H434   1.109       .  S
C423        H435   1.110       .  S
C423        H436   1.111       .  S
C437        C438   1.398       .  A
C437        C442   1.403       .  A
C437        H447   1.084       .  S
C438        C443   1.474       .  S
C438        C439   1.406       .  A
C439        C440   1.400       .  A
C439        C444   1.507       .  S
C440        C441   1.409       .  A
C440        H445   1.084       .  S
C441        C442   1.422       .  A
C442        C446   1.509       .  S
C443        C448   1.406       .  A
C443        C452   1.399       .  A
C444        H460   1.110       .  S
C444        H461   1.110       .  S
C444        H462   1.111       .  S
C446        H457   1.111       .  S
C446        H458   1.110       .  S
C446        H459   1.110       .  S
C448        C449   1.399       .  A
C448        C453   1.507       .  S
C449        C450   1.410       .  A
C449        H454   1.083       .  S
C450        C451   1.420       .  A
C451        C452   1.404       .  A
C451        C455   1.508       .  S
C452        H456   1.084       .  S
C453        H463   1.111       .  S
C453        H464   1.110       .  S
C453        H465   1.110       .  S
C455        H466   1.111       .  S
C455        H467   1.110       .  S
C455        H468   1.110       .  S
C469        C470   1.400       .  A
C469        C474   1.402       .  A
C469        H479   1.084       .  S
C470        C475   1.480       .  S
C470        C471   1.410       .  A
C471        C472   1.406       .  A
C471        C476   1.505       .  S
C472        C473   1.405       .  A
C472        H477   1.084       .  S
C473        C474   1.417       .  A
C474        C478   1.509       .  S
C475        C480   1.409       .  A
C475        C484   1.400       .  A
C476        H492   1.110       .  S
C476        H493   1.110       .  S
C476        H494   1.111       .  S
C478        H489   1.111       .  S
C478        H490   1.109       .  S
C478        H491   1.110       .  S
C480        C481   1.403       .  A
C480        C485   1.506       .  S
C481        C482   1.406       .  A
C481        H486   1.084       .  S
C482        C483   1.419       .  A
C483        C484   1.403       .  A
C483        C487   1.508       .  S
C484        H488   1.085       .  S
C485        H495   1.111       .  S
C485        H496   1.110       .  S
C485        H497   1.110       .  S
C487        H498   1.110       .  S
C487        H499   1.107       .  S
C487        H500   1.111       .  S
C501        C502   1.399       .  A
C501        C506   1.402       .  A
C501        H511   1.084       .  S
C502        C507   1.480   1_565  S
C502        C503   1.409       .  A
C503        C504   1.406       .  A
C503        C508   1.506       .  S
C504        C505   1.409       .  A
C504        H509   1.084       .  S
C505        C506   1.420       .  A
C506        C510   1.509       .  S
C507        C512   1.410       .  A
C507        C516   1.401       .  A
C508        H524   1.110       .  S
C508        H525   1.110       .  S
C508        H526   1.111       .  S
C510        H521   1.109       .  S
C510        H522   1.111       .  S
C510        H523   1.110       .  S
C512        C513   1.401       .  A
C512        C517   1.507       .  S
C513        C514   1.404       .  A
C513        H518   1.084       .  S
C514        C515   1.418       .  A
C515        C516   1.406       .  A
C515        C519   1.507       .  S
C516        H520   1.084       .  S
C517        H527   1.111       .  S
C517        H528   1.110   1_545  S
C517        H529   1.110   1_545  S
C519        H530   1.111       .  S
C519        H531   1.106       .  S
C519        H532   1.110       .  S
C533        C534   1.400   1_556  A
C533        C538   1.405       .  A
C533        H543   1.084       .  S
C534        C539   1.475       .  S
C534        C535   1.409       .  A
C535        C536   1.398       .  A
C535        C540   1.508       .  S
C536        C537   1.405       .  A
C536        H541   1.084       .  S
C537        C538   1.417   1_554  A
C538        C542   1.507       .  S
C539        C544   1.407       .  A
C539        C548   1.399   1_554  A
C540        H556   1.110       .  S
C540        H557   1.110       .  S
C540        H558   1.111       .  S
C542        H553   1.111       .  S
C542        H554   1.109       .  S
C542        H555   1.110   1_556  S
C544        C545   1.401       .  A
C544        C549   1.507       .  S
C545        C546   1.408   1_554  A
C545        H550   1.084       .  S
C546        C547   1.422       .  A
C547        C548   1.403       .  A
C547        C551   1.509       .  S
C548        H552   1.084       .  S
C549        H559   1.111       .  S
C549        H560   1.110       .  S
C549        H561   1.110       .  S
C551        H562   1.110       .  S
C551        H563   1.109       .  S
C551        H564   1.111       .  S
C565        C566   1.399   1_554  A
C565        C570   1.402       .  A
C565        H575   1.084       .  S
C566        C571   1.477   1_565  S
C566        C567   1.409       .  A
C567        C568   1.404       .  A
C567        C572   1.506       .  S
C568        C569   1.406   1_556  A
C568        H573   1.084       .  S
C569        C570   1.418       .  A
C570        C574   1.509       .  S
C571        C576   1.410       .  A
C571        C580   1.401   1_556  A
C572        H588   1.110       .  S
C572        H589   1.110       .  S
C572        H590   1.111       .  S
C574        H585   1.109       .  S
C574        H586   1.111       .  S
C574        H587   1.110       .  S
C576        C577   1.400       .  A
C576        C581   1.508       .  S
C577        C578   1.403       .  A
C577        H582   1.085       .  S
C578        C579   1.417   1_556  A
C579        C580   1.405       .  A
C579        C583   1.508       .  S
C580        H584   1.084       .  S
C581        H591   1.111       .  S
C581        H592   1.110   1_556  S
C581        H593   1.109       .  S
C583        H594   1.111       .  S
C583        H595   1.107       .  S
C583        H596   1.110   1_554  S
C597        C598   1.402       .  A
C597        C602   1.405       .  A
C597        H607   1.085       .  S
C598        C603   1.481       .  S
C598        C599   1.409       .  A
C599        C600   1.402       .  A
C599        C604   1.506       .  S
C600        C601   1.405       .  A
C600        H605   1.084       .  S
C601        C602   1.418       .  A
C602        C606   1.508       .  S
C603        C608   1.409       .  A
C603        C612   1.401       .  A
C604        H620   1.110       .  S
C604        H621   1.110       .  S
C604        H622   1.111       .  S
C606        H617   1.111       .  S
C606        H618   1.110       .  S
C606        H619   1.106       .  S
C608        C609   1.401       .  A
C608        C613   1.507       .  S
C609        C610   1.406       .  A
C609        H614   1.084       .  S
C610        C611   1.420       .  A
C611        C612   1.406       .  A
C611        C615   1.508       .  S
C612        H616   1.084       .  S
C613        H623   1.111       .  S
C613        H624   1.110       .  S
C613        H625   1.110       .  S
C615        H626   1.111       .  S
C615        H627   1.105       .  S
C615        H628   1.110       .  S
C629        C630   1.400       .  A
C629        C634   1.402       .  A
C629        H639   1.085       .  S
C630        C635   1.476       .  S
C630        C631   1.408       .  A
C631        C632   1.401       .  A
C631        C636   1.506       .  S
C632        C633   1.405       .  A
C632        H637   1.084       .  S
C633        C634   1.418       .  A
C634        C638   1.509       .  S
C635        C640   1.408       .  A
C635        C644   1.400       .  A
C636        H652   1.110       .  S
C636        H653   1.110       .  S
C636        H654   1.111       .  S
C638        H649   1.111       .  S
C638        H650   1.110       .  S
C638        H651   1.106       .  S
C640        C641   1.401       .  A
C640        C645   1.507       .  S
C641        C642   1.405       .  A
C641        H646   1.084       .  S
C642        C643   1.419       .  A
C643        C644   1.403       .  A
C643        C647   1.509       .  S
C644        H648   1.085       .  S
C645        H655   1.111       .  S
C645        H656   1.110       .  S
C645        H657   1.110       .  S
C647        H658   1.111       .  S
C647        H659   1.105       .  S
C647        H660   1.110       .  S
C661        C662   1.399       .  A
C661        C666   1.400       .  A
C661        H671   1.084       .  S
C662        C667   1.477       .  S
C662        C663   1.409       .  A
C663        C664   1.405       .  A
C663        C668   1.505       .  S
C664        C665   1.406       .  A
C664        H669   1.084       .  S
C665        C666   1.418       .  A
C666        C670   1.510       .  S
C667        C672   1.409       .  A
C667        C676   1.399       .  A
C668        H684   1.110       .  S
C668        H685   1.110       .  S
C668        H686   1.111       .  S
C670        H681   1.109       .  S
C670        H682   1.111       .  S
C670        H683   1.111       .  S
C672        C673   1.402       .  A
C672        C677   1.506       .  S
C673        C674   1.405       .  A
C673        H678   1.084       .  S
C674        C675   1.419       .  A
C675        C676   1.402       .  A
C675        C679   1.509       .  S
C676        H680   1.085       .  S
C677        H687   1.111       .  S
C677        H688   1.110       .  S
C677        H689   1.110       .  S
C679        H690   1.110       .  S
C679        H691   1.107       .  S
C679        H692   1.111       .  S
C693        C694   1.401       .  A
C693        C698   1.408       .  A
C693        H703   1.083       .  S
C694        C699   1.485       .  S
C694        C695   1.409       .  A
C695        C696   1.401       .  A
C695        C700   1.508       .  S
C696        C697   1.410       .  A
C696        H701   1.083       .  S
C697        C698   1.424       .  A
C698        C702   1.508       .  S
C699        C704   1.409       .  A
C699        C708   1.402       .  A
C700        H716   1.109       .  S
C700        H717   1.110       .  S
C700        H718   1.111       .  S
C702        H713   1.111       .  S
C702        H714   1.110       .  S
C702        H715   1.111       .  S
C704        C705   1.401       .  A
C704        C709   1.508       .  S
C705        C706   1.408       .  A
C705        H710   1.084       .  S
C706        C707   1.420       .  A
C707        C708   1.408       .  A
C707        C711   1.507       .  S
C708        H712   1.085       .  S
C709        H719   1.111       .  S
C709        H720   1.110       .  S
C709        H721   1.110       .  S
C711        H722   1.111       .  S
C711        H723   1.110       .  S
C711        H724   1.110       .  S
C725        C726   1.399       .  A
C725        C730   1.403       .  A
C725        H735   1.084       .  S
C726        C731   1.479       .  S
C726        C727   1.409   1_556  A
C727        C728   1.404       .  A
C727        C732   1.506       .  S
C728        C729   1.408   1_554  A
C728        H733   1.082       .  S
C729        C730   1.420       .  A
C730        C734   1.509       .  S
C731        C736   1.408       .  A
C731        C740   1.397   1_556  A
C732        H748   1.110       .  S
C732        H749   1.110       .  S
C732        H750   1.111       .  S
C734        H745   1.110       .  S
C734        H746   1.111       .  S
C734        H747   1.109       .  S
C736        C737   1.407       .  A
C736        C741   1.505       .  S
C737        C738   1.409   1_556  A
C737        H742   1.083       .  S
C738        C739   1.423       .  A
C739        C740   1.400       .  A
C739        C743   1.510       .  S
C740        H744   1.085       .  S
C741        H751   1.111       .  S
C741        H752   1.110       .  S
C741        H753   1.110   1_556  S
C743        H754   1.111   1_554  S
C743        H755   1.109       .  S
C743        H756   1.111       .  S
C757        C758   1.399       .  A
C757        C762   1.405       .  A
C757        H767   1.084       .  S
C758        C763   1.482       .  S
C758        C759   1.409   1_554  A
C759        C760   1.404       .  A
C759        C764   1.506       .  S
C760        C761   1.407   1_556  A
C760        H765   1.084       .  S
C761        C762   1.422       .  A
C762        C766   1.509       .  S
C763        C768   1.408       .  A
C763        C772   1.397   1_554  A
C764        H780   1.110       .  S
C764        H781   1.110       .  S
C764        H782   1.111       .  S
C766        H777   1.110       .  S
C766        H778   1.111       .  S
C766        H779   1.109       .  S
C768        C769   1.406       .  A
C768        C773   1.506       .  S
C769        C770   1.411       .  A
C769        H774   1.083       .  S
C770        C771   1.426   1_554  A
C771        C772   1.403       .  A
C771        C775   1.510       .  S
C772        H776   1.085       .  S
C773        H783   1.111       .  S
C773        H784   1.110       .  S
C773        H785   1.110       .  S
C775        H786   1.110       .  S
C775        H787   1.110       .  S
C775        H788   1.111       .  S
C789        C790   1.399       .  A
C789        C794   1.403       .  A
C789        H799   1.084       .  S
C790        C795   1.478       .  S
C790        C791   1.408       .  A
C791        C792   1.401       .  A
C791        C796   1.507       .  S
C792        C793   1.408       .  A
C792        H797   1.084       .  S
C793        C794   1.422       .  A
C794        C798   1.508       .  S
C795        C800   1.410       .  A
C795        C804   1.399       .  A
C796        H812   1.110       .  S
C796        H813   1.110       .  S
C796        H814   1.111       .  S
C798        H809   1.110       .  S
C798        H810   1.111       .  S
C798        H811   1.110       .  S
C800        C801   1.402       .  A
C800        C805   1.507       .  S
C801        C802   1.405       .  A
C801        H806   1.084       .  S
C802        C803   1.420       .  A
C803        C804   1.402       .  A
C803        C807   1.509       .  S
C804        H808   1.084       .  S
C805        H815   1.111       .  S
C805        H816   1.110       .  S
C805        H817   1.110       .  S
C807        H818   1.109       .  S
C807        H819   1.111       .  S
C807        H820   1.111       .  S
C821        C822   1.400       .  A
C821        C826   1.402       .  A
C821        H831   1.084       .  S
C822        C827   1.476       .  S
C822        C823   1.408       .  A
C823        C824   1.400       .  A
C823        C828   1.507       .  S
C824        C825   1.406       .  A
C824        H829   1.084       .  S
C825        C826   1.418       .  A
C826        C830   1.508       .  S
C827        C832   1.409       .  A
C827        C836   1.399       .  A
C828        H844   1.110       .  S
C828        H845   1.110       .  S
C828        H846   1.111       .  S
C830        H841   1.111       .  S
C830        H842   1.110       .  S
C830        H843   1.105       .  S
C832        C833   1.401       .  A
C832        C837   1.507       .  S
C833        C834   1.406       .  A
C833        H838   1.084       .  S
C834        C835   1.418       .  A
C835        C836   1.403       .  A
C835        C839   1.508       .  S
C836        H840   1.084       .  S
C837        H847   1.111       .  S
C837        H848   1.110       .  S
C837        H849   1.110       .  S
C839        H850   1.111       .  S
C839        H851   1.110       .  S
C839        H852   1.109       .  S
C853        C854   1.400       .  A
C853        C858   1.403       .  A
C853        H863   1.085       .  S
C854        C859   1.478       .  S
C854        C855   1.409       .  A
C855        C856   1.401       .  A
C855        C860   1.506       .  S
C856        C857   1.404       .  A
C856        H861   1.084       .  S
C857        C858   1.419       .  A
C858        C862   1.509       .  S
C859        C864   1.410       .  A
C859        C868   1.402       .  A
C860        H876   1.110       .  S
C860        H877   1.110       .  S
C860        H878   1.111       .  S
C862        H873   1.111       .  S
C862        H874   1.110       .  S
C862        H875   1.105       .  S
C864        C865   1.398       .  A
C864        C869   1.508       .  S
C865        C866   1.403       .  A
C865        H870   1.084       .  S
C866        C867   1.417       .  A
C867        C868   1.408       .  A
C867        C871   1.507       .  S
C868        H872   1.084       .  S
C869        H879   1.111       .  S
C869        H880   1.110       .  S
C869        H881   1.110       .  S
C871        H882   1.109       .  S
C871        H883   1.111       .  S
C871        H884   1.111       .  S
C885        C886   1.401       .  A
C885        C890   1.402       .  A
C885        H895   1.085       .  S
C886        C891   1.478       .  S
C886        C887   1.409       .  A
C887        C888   1.402       .  A
C887        C892   1.506       .  S
C888        C889   1.404       .  A
C888        H893   1.085       .  S
C889        C890   1.417       .  A
C890        C894   1.509       .  S
C891        C896   1.409       .  A
C891        C900   1.399       .  A
C892        H908   1.110       .  S
C892        H909   1.109       .  S
C892        H910   1.111       .  S
C894        H905   1.111       .  S
C894        H906   1.110       .  S
C894        H907   1.106       .  S
C896        C897   1.402       .  A
C896        C901   1.508       .  S
C897        C898   1.406       .  A
C897        H902   1.084       .  S
C898        C899   1.419       .  A
C899        C900   1.405       .  A
C899        C903   1.507       .  S
C900        H904   1.084       .  S
C901        H911   1.111       .  S
C901        H912   1.110       .  S
C901        H913   1.109       .  S
C903        H914   1.109       .  S
C903        H915   1.110       .  S
C903        H916   1.111       .  S
C917        C918   1.398       .  A
C917        C922   1.402       .  A
C917        H927   1.084       .  S
C918        C923   1.479   1_655  S
C918        C919   1.410       .  A
C919        C920   1.405       .  A
C919        C924   1.506       .  S
C920        C921   1.405       .  A
C920        H925   1.084       .  S
C921        C922   1.419       .  A
C922        C926   1.509       .  S
C923        C928   1.408       .  A
C923        C932   1.401       .  A
C924        H940   1.110   1_655  S
C924        H941   1.110   1_655  S
C924        H942   1.111       .  S
C926        H937   1.109       .  S
C926        H938   1.111       .  S
C926        H939   1.110       .  S
C928        C929   1.400       .  A
C928        C933   1.508       .  S
C929        C930   1.407       .  A
C929        H934   1.084       .  S
C930        C931   1.419       .  A
C931        C932   1.407       .  A
C931        C935   1.507       .  S
C932        H936   1.084       .  S
C933        H943   1.111       .  S
C933        H944   1.110       .  S
C933        H945   1.110       .  S
C935        H946   1.110       .  S
C935        H947   1.110       .  S
C935        H948   1.111       .  S
C949        C950   1.400       .  A
C949        C954   1.403       .  A
C949        H959   1.084       .  S
C950        C955   1.482       .  S
C950        C951   1.410       .  A
C951        C952   1.408       .  A
C951        C956   1.505       .  S
C952        C953   1.406       .  A
C952        H957   1.084       .  S
C953        C954   1.417       .  A
C954        C958   1.509       .  S
C955        C960   1.410       .  A
C955        C964   1.401   1_554  A
C956        H972   1.110   1_554  S
C956        H973   1.110       .  S
C956        H974   1.111       .  S
C958        H969   1.111       .  S
C958        H970   1.111       .  S
C958        H971   1.109   1_554  S
C960        C961   1.405       .  A
C960        C965   1.506       .  S
C961        C962   1.406       .  A
C961        H966   1.084       .  S
C962        C963   1.417   1_554  A
C963        C964   1.403       .  A
C963        C967   1.507       .  S
C964        H968   1.085       .  S
C965        H975   1.111       .  S
C965        H976   1.110       .  S
C965        H977   1.110       .  S
C967        H978   1.110       .  S
C967        H979   1.107       .  S
C967        H980   1.111       .  S
C981        C982   1.399   1_556  A
C981        C986   1.404       .  A
C981        H991   1.085       .  S
C982        C987   1.480       .  S
C982        C983   1.410       .  A
C983        C984   1.403       .  A
C983        C988   1.507       .  S
C984        C985   1.406   1_554  A
C984        H989   1.084       .  S
C985        C986   1.421       .  A
C986        C990   1.509       .  S
C987        C992   1.410   1_554  A
C987        C996   1.398       .  A
C988       H1004   1.110       .  S
C988       H1005   1.110       .  S
C988       H1006   1.111       .  S
C990       H1001   1.110       .  S
C990       H1002   1.111       .  S
C990       H1003   1.109       .  S
C992        C993   1.407       .  A
C992        C997   1.505       .  S
C993        C994   1.407   1_556  A
C993        H998   1.084       .  S
C994        C995   1.420       .  A
C995        C996   1.400       .  A
C995        C999   1.510       .  S
C996       H1000   1.084       .  S
C997       H1007   1.111       .  S
C997       H1008   1.110       .  S
C997       H1009   1.110   1_556  S
C999       H1010   1.110       .  S
C999       H1011   1.109       .  S
C999       H1012   1.111       .  S
C1013      C1014   1.401   1_554  A
C1013      C1018   1.407       .  A
C1013      H1023   1.085       .  S
C1014      C1019   1.483   1_656  S
C1014      C1015   1.408       .  A
C1015      C1016   1.403       .  A
C1015      C1020   1.507       .  S
C1016      C1017   1.407   1_556  A
C1016      H1021   1.084       .  S
C1017      C1018   1.423       .  A
C1018      C1022   1.508       .  S
C1019      C1024   1.409   1_554  A
C1019      C1028   1.399       .  A
C1020      H1036   1.110       .  S
C1020      H1037   1.110       .  S
C1020      H1038   1.111       .  S
C1022      H1033   1.110       .  S
C1022      H1034   1.111       .  S
C1022      H1035   1.102       .  S
C1024      C1025   1.408       .  A
C1024      C1029   1.505       .  S
C1025      C1026   1.409   1_556  A
C1025      H1030   1.084       .  S
C1026      C1027   1.419       .  A
C1027      C1028   1.402       .  A
C1027      C1031   1.509       .  S
C1028      H1032   1.084       .  S
C1029      H1039   1.111       .  S
C1029      H1040   1.110   1_556  S
C1029      H1041   1.110       .  S
C1031      H1042   1.109       .  S
C1031      H1043   1.111   1_554  S
C1031      H1044   1.111       .  S
C1045      C1046   1.398       .  A
C1045      C1050   1.402       .  A
C1045      H1055   1.085       .  S
C1046      C1051   1.478       .  S
C1046      C1047   1.408       .  A
C1047      C1048   1.404       .  A
C1047      C1052   1.506       .  S
C1048      C1049   1.409       .  A
C1048      H1053   1.084       .  S
C1049      C1050   1.422       .  A
C1050      C1054   1.509       .  S
C1051      C1056   1.407       .  A
C1051      C1060   1.399       .  A
C1052      H1068   1.110       .  S
C1052      H1069   1.110       .  S
C1052      H1070   1.111       .  S
C1054      H1065   1.110       .  S
C1054      H1066   1.111       .  S
C1054      H1067   1.110       .  S
C1056      C1057   1.403       .  A
C1056      C1061   1.507       .  S
C1057      C1058   1.410       .  A
C1057      H1062   1.084       .  S
C1058      C1059   1.422       .  A
C1059      C1060   1.404       .  A
C1059      C1063   1.508       .  S
C1060      H1064   1.084       .  S
C1061      H1071   1.111       .  S
C1061      H1072   1.110       .  S
C1061      H1073   1.110       .  S
C1063      H1074   1.111       .  S
C1063      H1075   1.110       .  S
C1063      H1076   1.111       .  S
C1077      C1078   1.399       .  A
C1077      C1082   1.403       .  A
C1077      H1087   1.084       .  S
C1078      C1083   1.477       .  S
C1078      C1079   1.408       .  A
C1079      C1080   1.402       .  A
C1079      C1084   1.506       .  S
C1080      C1081   1.408       .  A
C1080      H1085   1.084       .  S
C1081      C1082   1.421       .  A
C1082      C1086   1.509       .  S
C1083      C1088   1.409       .  A
C1083      C1092   1.399       .  A
C1084      H1100   1.110       .  S
C1084      H1101   1.110       .  S
C1084      H1102   1.111       .  S
C1086      H1097   1.109       .  S
C1086      H1098   1.111       .  S
C1086      H1099   1.111       .  S
C1088      C1089   1.401       .  A
C1088      C1093   1.507       .  S
C1089      C1090   1.406       .  A
C1089      H1094   1.084       .  S
C1090      C1091   1.420       .  A
C1091      C1092   1.404       .  A
C1091      C1095   1.508       .  S
C1092      H1096   1.084       .  S
C1093      H1103   1.111       .  S
C1093      H1104   1.110       .  S
C1093      H1105   1.110       .  S
C1095      H1106   1.109       .  S
C1095      H1107   1.111       .  S
C1095      H1108   1.111       .  S
C1109      C1110   1.400       .  A
C1109      C1114   1.406       .  A
C1109      H1119   1.084       .  S
C1110      C1115   1.474       .  S
C1110      C1111   1.409       .  A
C1111      C1112   1.397       .  A
C1111      C1116   1.508       .  S
C1112      C1113   1.405       .  A
C1112      H1117   1.084       .  S
C1113      C1114   1.418       .  A
C1114      C1118   1.507       .  S
C1115      C1120   1.407       .  A
C1115      C1124   1.396       .  A
C1116      H1132   1.110       .  S
C1116      H1133   1.110       .  S
C1116      H1134   1.111       .  S
C1118      H1129   1.111       .  S
C1118      H1130   1.109       .  S
C1118      H1131   1.110       .  S
C1120      C1121   1.403       .  A
C1120      C1125   1.506       .  S
C1121      C1122   1.409       .  A
C1121      H1126   1.083       .  S
C1122      C1123   1.425       .  A
C1123      C1124   1.400       .  A
C1123      C1127   1.510       .  S
C1124      H1128   1.085       .  S
C1125      H1135   1.111       .  S
C1125      H1136   1.110       .  S
C1125      H1137   1.110       .  S
C1127      H1138   1.110       .  S
C1127      H1139   1.110       .  S
C1127      H1140   1.111       .  S
C1141      C1142   1.400       .  A
C1141      C1146   1.403       .  A
C1141      H1151   1.084       .  S
C1142      C1147   1.478       .  S
C1142      C1143   1.410       .  A
C1143      C1144   1.402       .  A
C1143      C1148   1.507       .  S
C1144      C1145   1.405       .  A
C1144      H1149   1.084       .  S
C1145      C1146   1.417       .  A
C1146      C1150   1.508       .  S
C1147      C1152   1.409       .  A
C1147      C1156   1.399       .  A
C1148      H1164   1.110       .  S
C1148      H1165   1.110       .  S
C1148      H1166   1.111       .  S
C1150      H1161   1.111       .  S
C1150      H1162   1.111       .  S
C1150      H1163   1.110       .  S
C1152      C1153   1.404       .  A
C1152      C1157   1.505       .  S
C1153      C1154   1.405       .  A
C1153      H1158   1.084       .  S
C1154      C1155   1.420       .  A
C1155      C1156   1.400       .  A
C1155      C1159   1.511       .  S
C1156      H1160   1.085       .  S
C1157      H1167   1.111       .  S
C1157      H1168   1.110       .  S
C1157      H1169   1.110       .  S
C1159      H1170   1.111       .  S
C1159      H1171   1.106       .  S
C1159      H1172   1.110       .  S
C1173      C1174   1.399       .  A
C1173      C1178   1.401       .  A
C1173      H1183   1.084       .  S
C1174      C1179   1.474   1_545  S
C1174      C1175   1.408       .  A
C1175      C1176   1.402       .  A
C1175      C1180   1.506       .  S
C1176      C1177   1.406       .  A
C1176      H1181   1.084       .  S
C1177      C1178   1.418       .  A
C1178      C1182   1.509       .  S
C1179      C1184   1.408       .  A
C1179      C1188   1.401       .  A
C1180      H1196   1.110       .  S
C1180      H1197   1.110       .  S
C1180      H1198   1.111       .  S
C1182      H1193   1.109       .  S
C1182      H1194   1.111       .  S
C1182      H1195   1.110       .  S
C1184      C1185   1.397       .  A
C1184      C1189   1.508       .  S
C1185      C1186   1.404       .  A
C1185      H1190   1.085       .  S
C1186      C1187   1.417       .  A
C1187      C1188   1.405       .  A
C1187      C1191   1.508       .  S
C1188      H1192   1.084       .  S
C1189      H1199   1.111       .  S
C1189      H1200   1.110   1_565  S
C1189      H1201   1.110       .  S
C1191      H1202   1.111       .  S
C1191      H1203   1.106       .  S
C1191      H1204   1.110       .  S
C1205      C1206   1.400       .  A
C1205      C1210   1.406       .  A
C1205      H1215   1.084       .  S
C1206      C1211   1.478       .  S
C1206      C1207   1.409       .  A
C1207      C1208   1.401       .  A
C1207      C1212   1.507       .  S
C1208      C1209   1.406       .  A
C1208      H1213   1.084       .  S
C1209      C1210   1.419       .  A
C1210      C1214   1.507       .  S
C1211      C1216   1.410       .  A
C1211      C1220   1.398       .  A
C1212      H1228   1.110       .  S
C1212      H1229   1.110       .  S
C1212      H1230   1.111       .  S
C1214      H1225   1.111       .  S
C1214      H1226   1.110       .  S
C1214      H1227   1.110       .  S
C1216      C1217   1.407       .  A
C1216      C1221   1.505       .  S
C1217      C1218   1.405       .  A
C1217      H1222   1.084       .  S
C1218      C1219   1.417       .  A
C1219      C1220   1.397       .  A
C1219      C1223   1.510       .  S
C1220      H1224   1.085       .  S
C1221      H1231   1.111       .  S
C1221      H1232   1.110       .  S
C1221      H1233   1.110       .  S
C1223      H1234   1.111       .  S
C1223      H1235   1.107       .  S
C1223      H1236   1.110       .  S
C1237      C1238   1.401       .  A
C1237      C1242   1.404       .  A
C1237      H1247   1.084       .  S
C1238      C1243   1.480       .  S
C1238      C1239   1.410       .  A
C1239      C1240   1.403       .  A
C1239      C1244   1.507       .  S
C1240      C1241   1.406       .  A
C1240      H1245   1.084       .  S
C1241      C1242   1.418       .  A
C1242      C1246   1.508       .  S
C1243      C1248   1.410       .  A
C1243      C1252   1.401       .  A
C1244      H1260   1.110       .  S
C1244      H1261   1.110       .  S
C1244      H1262   1.111       .  S
C1246      H1257   1.111       .  S
C1246      H1258   1.110       .  S
C1246      H1259   1.106       .  S
C1248      C1249   1.404       .  A
C1248      C1253   1.506       .  S
C1249      C1250   1.405       .  A
C1249      H1254   1.084       .  S
C1250      C1251   1.417       .  A
C1251      C1252   1.403       .  A
C1251      C1255   1.508       .  S
C1252      H1256   1.085       .  S
C1253      H1263   1.111       .  S
C1253      H1264   1.110       .  S
C1253      H1265   1.110       .  S
C1255      H1266   1.110       .  S
C1255      H1267   1.107       .  S
C1255      H1268   1.111       .  S
C1269      C1270   1.399       .  A
C1269      C1274   1.401       .  A
C1269      H1279   1.085       .  S
C1270      C1275   1.477       .  S
C1270      C1271   1.409       .  A
C1271      C1272   1.403       .  A
C1271      C1276   1.506       .  S
C1272      C1273   1.405       .  A
C1272      H1277   1.084       .  S
C1273      C1274   1.418       .  A
C1274      C1278   1.509       .  S
C1275      C1280   1.410       .  A
C1275      C1284   1.399       .  A
C1276      H1292   1.110       .  S
C1276      H1293   1.110       .  S
C1276      H1294   1.111       .  S
C1278      H1289   1.111       .  S
C1278      H1290   1.110       .  S
C1278      H1291   1.106       .  S
C1280      C1281   1.403       .  A
C1280      C1285   1.506       .  S
C1281      C1282   1.404       .  A
C1281      H1286   1.084       .  S
C1282      C1283   1.419       .  A
C1283      C1284   1.401       .  A
C1283      C1287   1.509       .  S
C1284      H1288   1.085       .  S
C1285      H1295   1.111       .  S
C1285      H1296   1.110       .  S
C1285      H1297   1.110       .  S
C1287      H1298   1.110       .  S
C1287      H1299   1.106       .  S
C1287      H1300   1.111       .  S
C1301      C1302   1.400       .  A
C1301      C1306   1.400       .  A
C1301      H1311   1.085   1_556  S
C1302      C1307   1.483       .  S
C1302      C1303   1.411       .  A
C1303      C1304   1.407       .  A
C1303      C1308   1.505       .  S
C1304      C1305   1.405       .  A
C1304      H1309   1.084       .  S
C1305      C1306   1.418       .  A
C1306      C1310   1.511       .  S
C1307      C1312   1.409   1_556  A
C1307      C1316   1.401       .  A
C1308      H1324   1.110       .  S
C1308      H1325   1.110   1_556  S
C1308      H1326   1.111       .  S
C1310      H1321   1.110   1_556  S
C1310      H1322   1.111       .  S
C1310      H1323   1.106       .  S
C1312      C1313   1.402       .  A
C1312      C1317   1.507       .  S
C1313      C1314   1.408   1_554  A
C1313      H1318   1.084       .  S
C1314      C1315   1.421       .  A
C1315      C1316   1.408       .  A
C1315      C1319   1.507       .  S
C1316      H1320   1.084       .  S
C1317      H1327   1.111       .  S
C1317      H1328   1.109       .  S
C1317      H1329   1.110       .  S
C1319      H1330   1.110       .  S
C1319      H1331   1.110       .  S
C1319      H1332   1.111       .  S
C1333      C1334   1.398   1_554  A
C1333      C1338   1.403       .  A
C1333      H1343   1.085       .  S
C1334      C1339   1.477       .  S
C1334      C1335   1.407       .  A
C1335      C1336   1.403       .  A
C1335      C1340   1.507       .  S
C1336      C1337   1.409   1_556  A
C1336      H1341   1.084       .  S
C1337      C1338   1.422       .  A
C1338      C1342   1.509       .  S
C1339      C1344   1.409       .  A
C1339      C1348   1.400   1_556  A
C1340      H1356   1.110       .  S
C1340      H1357   1.110       .  S
C1340      H1358   1.111       .  S
C1342      H1353   1.111       .  S
C1342      H1354   1.110       .  S
C1342      H1355   1.109       .  S
C1344      C1345   1.399       .  A
C1344      C1349   1.508       .  S
C1345      C1346   1.406       .  A
C1345      H1350   1.084       .  S
C1346      C1347   1.420   1_556  A
C1347      C1348   1.406       .  A
C1347      C1351   1.508       .  S
C1348      H1352   1.084       .  S
C1349      H1359   1.111       .  S
C1349      H1360   1.110       .  S
C1349      H1361   1.109       .  S
C1351      H1362   1.109       .  S
C1351      H1363   1.110   1_554  S
C1351      H1364   1.111       .  S
C1365      C1366   1.396   1_556  A
C1365      C1370   1.399       .  A
C1365      H1375   1.086       .  S
C1366      C1371   1.476   1_545  S
C1366      C1367   1.407       .  A
C1367      C1368   1.404       .  A
C1367      C1372   1.506       .  S
C1368      C1369   1.411   1_554  A
C1368      H1373   1.084       .  S
C1369      C1370   1.425       .  A
C1370      C1374   1.510       .  S
C1371      C1376   1.410   1_554  A
C1371      C1380   1.400       .  A
C1372      H1388   1.109       .  S
C1372      H1389   1.110       .  S
C1372      H1390   1.111       .  S
C1374      H1385   1.110       .  S
C1374      H1386   1.111       .  S
C1374      H1387   1.110       .  S
C1376      C1377   1.401       .  A
C1376      C1381   1.507       .  S
C1377      C1378   1.405   1_556  A
C1377      H1382   1.083       .  S
C1378      C1379   1.418       .  A
C1379      C1380   1.400       .  A
C1379      C1383   1.509       .  S
C1380      H1384   1.084       .  S
C1381      H1391   1.111       .  S
C1381      H1392   1.109       .  S
C1381      H1393   1.110       .  S
C1383      H1394   1.110       .  S
C1383      H1395   1.107       .  S
C1383      H1396   1.111       .  S
C1397      C1398   1.398       .  A
C1397      C1402   1.401       .  A
C1397      H1407   1.085       .  S
C1398      C1403   1.482   1_554  S
C1398      C1399   1.410       .  A
C1399      C1400   1.407       .  A
C1399      C1404   1.505       .  S
C1400      C1401   1.407       .  A
C1400      H1405   1.084       .  S
C1401      C1402   1.421       .  A
C1402      C1406   1.510       .  S
C1403      C1408   1.410       .  A
C1403      C1412   1.401   1_556  A
C1404      H1420   1.110       .  S
C1404      H1421   1.110   1_554  S
C1404      H1422   1.111       .  S
C1406      H1417   1.109   1_554  S
C1406      H1418   1.111       .  S
C1406      H1419   1.110       .  S
C1408      C1409   1.402       .  A
C1408      C1413   1.507       .  S
C1409      C1410   1.405   1_556  A
C1409      H1414   1.084       .  S
C1410      C1411   1.418       .  A
C1411      C1412   1.406       .  A
C1411      C1415   1.508       .  S
C1412      H1416   1.084       .  S
C1413      H1423   1.111       .  S
C1413      H1424   1.110       .  S
C1413      H1425   1.110       .  S
C1415      H1426   1.111       .  S
C1415      H1427   1.110       .  S
C1415      H1428   1.111       .  S
