geometry optimzed in LAMMPS
_audit_creation_date              2020-12-01 
_audit_creation_method            'lammps2cif' 
_symmetry_space_group_name_H-M    'P1' 
_symmetry_Int_Tables_number       1 
_symmetry_cell_setting            triclinic 
loop_ 
_symmetry_equiv_pos_as_xyz 
  x,y,z 
_cell_length_a                    44.46529712 
_cell_length_b                    44.672133736378555 
_cell_length_c                    31.82636615683136 
_cell_angle_alpha                 89.7174292981361 
_cell_angle_beta                  90.10418781145114 
_cell_angle_gamma                 120.39063153707993 
loop_ 
_atom_site_label 
_atom_site_type_symbol 
_atom_site_fract_x 
_atom_site_fract_y 
_atom_site_fract_z 
_atom_site_charge 
Fe1        Fe  0.37040365  0.18267930  0.00613370     1.65800
Fe2        Fe  0.44456240  0.24749962  0.04487201     1.73200
Fe3        Fe  0.44702091  0.20017708  0.96604004     1.54400
O4          O  0.41077482  0.14633581  0.96490217    -0.81600
O5          O  0.46630971  0.28029103  0.99539343    -0.80000
O6          O  0.37210937  0.13841074  0.01396780    -0.84200
O7          O  0.36786028  0.17734983  0.94025082    -0.79000
O8          O  0.47112607  0.19080949  0.01426491    -0.80800
O9          O  0.40576094  0.26123344  0.04422444    -0.83500
C10         C  0.39004212  0.19296538  0.91086960     0.97200
C11         C  0.38651504  0.12658909  0.99033975     1.04700
O12         O  0.42043863  0.20981337  0.00603981    -1.12500
O13         O  0.42225166  0.21503338  0.09494760    -0.74900
O14         O  0.36724255  0.18496840  0.07207698    -0.78400
O15         O  0.42270661  0.20925757  0.91718018    -0.79100
C16         C  0.38992680  0.19503308  0.10144597     0.96100
O17         O  0.36668098  0.22583147  0.99806873    -0.77100
O18         O  0.48782075  0.23968290  0.04928273    -0.82300
C19         C  0.49147902  0.28078157  0.97667254     0.98800
C20         C  0.49270436  0.21508962  0.03752486     1.04700
O21         O  0.48870836  0.25249428  0.96369200    -0.77900
C22         C  0.38024163  0.25339790  0.01951851     1.03000
Fe23       Fe  0.37568544  0.18643521  0.50629850     1.65800
Fe24       Fe  0.45365026  0.20574897  0.46734082     1.73200
Fe25       Fe  0.44866317  0.25205715  0.54561719     1.54400
O26         O  0.40873394  0.26411544  0.54568221    -0.81600
O27         O  0.47795326  0.19716965  0.51613633    -0.80000
O28         O  0.37066835  0.22929169  0.49831945    -0.84200
O29         O  0.37249503  0.18837495  0.57249261    -0.79000
O30         O  0.46804313  0.28349295  0.49468836    -0.80800
O31         O  0.41867967  0.15175289  0.46632464    -0.83500
C32         C  0.39510872  0.19893435  0.60211790     0.97200
C33         C  0.38374736  0.25662904  0.52028345     1.04700
O34         O  0.42567289  0.21412350  0.50696932    -1.12500
O35         O  0.42908811  0.21360577  0.41799716    -0.74900
O36         O  0.37395181  0.18161464  0.44015290    -0.78400
O37         O  0.42734588  0.21977587  0.59586877    -0.79100
C38         C  0.39650840  0.19725747  0.41103064     0.96100
O39         O  0.37833834  0.14247166  0.51403110    -0.77100
O40         O  0.49458542  0.25889211  0.46539670    -0.82300
C41         C  0.49964148  0.22252502  0.53788351     0.98800
C42         C  0.49530110  0.28587515  0.47987404     1.04700
O43         O  0.49339429  0.24619089  0.54982375    -0.77900
C44         C  0.39462037  0.13179227  0.49189763     1.03000
Fe45       Fe  0.18596423  0.80790254  0.99419976     1.65800
Fe46       Fe  0.24583321  0.79309721  0.03752634     1.73200
Fe47       Fe  0.19986538  0.74671510  0.95465586     1.54400
O48         O  0.14591534  0.72901848  0.95493691    -0.81600
O49         O  0.28212242  0.80587841  0.99197677    -0.80000
O50         O  0.13943694  0.76342685  0.99997715    -0.84200
O51         O  0.18203776  0.80721539  0.92815787    -0.79000
O52         O  0.18984984  0.71285096  0.00252455    -0.80800
O53         O  0.26122326  0.84648157  0.03973728    -0.83500
C54         C  0.19590554  0.79876440  0.89890291     0.97200
C55         C  0.12695134  0.73616320  0.97815723     1.04700
O56         O  0.21058838  0.78270097  0.99506908    -1.12500
O57         O  0.20963849  0.78088468  0.08445396    -0.74900
O58         O  0.18686693  0.81211293  0.06017030    -0.78400
O59         O  0.20898607  0.77971300  0.90551266    -0.79100
C60         C  0.19273495  0.79652063  0.09006684     0.96100
O61         O  0.23157876  0.85318630  0.98820318    -0.77100
O62         O  0.23866308  0.74191578  0.03799425    -0.82300
C63         C  0.28170235  0.78440882  0.96591303     0.98800
C64         C  0.21547677  0.71387707  0.02066740     1.04700
O65         O  0.25302966  0.75962758  0.95113570    -0.77900
C66         C  0.25720316  0.86575741  0.01314269     1.03000
Fe67       Fe  0.18493745  0.81362736  0.49378968     1.65800
Fe68       Fe  0.24845161  0.79963246  0.52718943     1.73200
Fe69       Fe  0.19386265  0.75000452  0.45234864     1.54400
O70         O  0.14044273  0.73481648  0.45586284    -0.81600
O71         O  0.27896557  0.80939436  0.47543604    -0.80000
O72         O  0.13805119  0.76954461  0.50365431    -0.84200
O73         O  0.17689252  0.81114970  0.42793889    -0.79000
O74         O  0.18545609  0.71808376  0.50218431    -0.80800
O75         O  0.26560074  0.85308995  0.52781828    -0.83500
C76         C  0.18867416  0.80144794  0.39741277     0.97200
C77         C  0.12318713  0.74245960  0.48134506     1.04700
O78         O  0.20895584  0.78798640  0.49104178    -1.12500
O79         O  0.21856798  0.79102101  0.57934806    -0.74900
O80         O  0.19076962  0.81884243  0.55968401    -0.78400
O81         O  0.20146827  0.78191819  0.40252116    -0.79100
C82         C  0.20128286  0.80573854  0.58795122     0.96100
O83         O  0.23023971  0.85920667  0.48414384    -0.77100
O84         O  0.23803477  0.74730822  0.52975033    -0.82300
C85         C  0.27582058  0.78371200  0.45543874     0.98800
C86         C  0.21171295  0.71861159  0.51789095     1.04700
O87         O  0.24560951  0.75878555  0.44499673    -0.77900
C88         C  0.25858223  0.87195779  0.50419247     1.03000
Fe89       Fe  0.81459191  0.62350433  0.01658028     1.65800
Fe90       Fe  0.79835134  0.54483653  0.04904262     1.73200
Fe91       Fe  0.75418114  0.55225246  0.96904043     1.54400
O92         O  0.73925446  0.58987334  0.97110563    -0.81600
O93         O  0.81019724  0.52425673  0.99896571    -0.80000
O94         O  0.76913274  0.62421067  0.02408415    -0.84200
O95         O  0.81426946  0.63132684  0.95080386    -0.79000
O96         O  0.71885193  0.52710439  0.01526655    -0.80800
O97         O  0.85189873  0.58134183  0.05327047    -0.83500
C98         C  0.80654148  0.61116124  0.91912027     0.97200
C99         C  0.74345043  0.61202258  0.99898268     1.04700
O100        O  0.78938274  0.57377955  0.01156501    -1.12500
O101        O  0.78796952  0.56535497  0.10046471    -0.74900
O102        O  0.81771037  0.62145782  0.08260391    -0.78400
O103        O  0.78957903  0.57840117  0.92287996    -0.79100
C104        C  0.80327462  0.59729445  0.11014298     0.96100
O105        O  0.86051247  0.62404748  0.00921708    -0.77100
O106        O  0.74546672  0.50296985  0.04715338    -0.82300
C107        C  0.78594872  0.50348007  0.97513682     0.98800
C108        C  0.71787357  0.50100014  0.03177793     1.04700
O109        O  0.76260058  0.50991321  0.96223792    -0.77900
C110        C  0.87150963  0.60695207  0.02945533     1.03000
Fe111      Fe  0.80022561  0.62445436  0.51497024     1.65800
Fe112      Fe  0.79179518  0.55256321  0.55964881     1.73200
Fe113      Fe  0.73857904  0.54594423  0.48141699     1.54400
O114        O  0.71967076  0.58077628  0.48006116    -0.81600
O115        O  0.80132488  0.52769133  0.51326488    -0.80000
O116        O  0.75409499  0.62337137  0.52359414    -0.84200
O117        O  0.79529090  0.62413471  0.44901917    -0.79000
O118        O  0.70766126  0.52375902  0.53210045    -0.80800
O119        O  0.84497777  0.59144961  0.55554228    -0.83500
C120        C  0.78488619  0.60072421  0.42074911     0.97200
C121        C  0.72593217  0.60658136  0.50317818     1.04700
O122        O  0.77709899  0.57452013  0.51837595    -1.12500
O123        O  0.78276388  0.57726548  0.60765032    -0.74900
O124        O  0.80796806  0.63073039  0.58052599    -0.78400
O125        O  0.76816605  0.56851784  0.42921649    -0.79100
C126        C  0.79618527  0.60977781  0.61175649     0.96100
O127        O  0.84734786  0.62784419  0.50613814    -0.77100
O128        O  0.74098363  0.50895823  0.56750109    -0.82300
C129        C  0.77750200  0.50363755  0.49203278     0.98800
C130        C  0.71092312  0.50291734  0.55577642     1.04700
O131        O  0.75120533  0.50571409  0.47935347    -0.77900
C132        C  0.86205067  0.61536348  0.52846498     1.03000
Fe133      Fe  0.62643125  0.81139183  0.00424795     1.65800
Fe134      Fe  0.54769551  0.74940946  0.03701474     1.73200
Fe135      Fe  0.55438599  0.80081817  0.95785509     1.54400
O136        O  0.59396384  0.85357375  0.95850936    -0.81600
O137        O  0.52816615  0.71872691  0.98589749    -0.80000
O138        O  0.62846634  0.85753477  0.01108057    -0.84200
O139        O  0.63294676  0.81853893  0.93832061    -0.79000
O140        O  0.53165187  0.81191055  0.00556073    -0.80800
O141        O  0.58403325  0.73210724  0.04121411    -0.83500
C142        C  0.61207781  0.80606456  0.90702001     0.97200
C143        C  0.61787034  0.87162108  0.98503150     1.04700
O144        O  0.57657762  0.78724166  0.99967790    -1.12500
O145        O  0.56837662  0.78039071  0.08840727    -0.74900
O146        O  0.62478946  0.80713276  0.07061592    -0.78400
O147        O  0.57915252  0.79096169  0.91082864    -0.79100
C148        C  0.60048116  0.79806493  0.09789613     0.96100
O149        O  0.62709509  0.76645338  0.99769364    -0.77100
O150        O  0.50575443  0.76034335  0.03538779    -0.82300
C151        C  0.50436618  0.72002208  0.96598274     0.98800
C152        C  0.50466661  0.78666492  0.02105305     1.04700
O153        O  0.50961234  0.74940117  0.95264264    -0.77900
C154        C  0.61102412  0.73903683  0.01952890     1.03000
Fe155      Fe  0.61471035  0.81632172  0.50516016     1.65800
Fe156      Fe  0.54148003  0.75074282  0.54439494     1.73200
Fe157      Fe  0.53704924  0.79903213  0.46753172     1.54400
O158        O  0.57221484  0.85274626  0.46812039    -0.81600
O159        O  0.52177343  0.71986021  0.49336665    -0.80000
O160        O  0.61251543  0.86023407  0.51525428    -0.84200
O161        O  0.61656813  0.82314908  0.43911962    -0.79000
O162        O  0.51310639  0.80652601  0.51759711    -0.80800
O163        O  0.58133375  0.73852590  0.54398362    -0.83500
C164        C  0.59387474  0.80887197  0.40990163     0.97200
C165        C  0.59612100  0.87153495  0.49423764     1.04700
O166        O  0.56473213  0.78911955  0.50594853    -1.12500
O167        O  0.56333067  0.78256864  0.59490864    -0.74900
O168        O  0.61807906  0.81272461  0.57099581    -0.78400
O169        O  0.56131435  0.79254952  0.41701312    -0.79100
C170        C  0.59578922  0.80263011  0.60095760     0.96100
O171        O  0.61886385  0.77309066  0.49563526    -0.77100
O172        O  0.49639896  0.75613338  0.54868936    -0.82300
C173        C  0.49535833  0.71837791  0.47683247     0.98800
C174        C  0.49045550  0.78022587  0.53736279     1.04700
O175        O  0.49643198  0.74604022  0.46386392    -0.77900
C176        C  0.60648366  0.74622855  0.51868277     1.03000
Fe177      Fe  0.81459494  0.19802812  0.99650470     1.65800
Fe178      Fe  0.74707238  0.19970722  0.03923698     1.73200
Fe179      Fe  0.79034820  0.25278184  0.95957142     1.54400
O180        O  0.84464363  0.27465188  0.95661487    -0.81600
O181        O  0.71295837  0.18658195  0.99079306    -0.80000
O182        O  0.85680107  0.24638514  0.00528964    -0.84200
O183        O  0.81970095  0.20328341  0.93059393    -0.79000
O184        O  0.79811965  0.28471459  0.00886436    -0.80800
O185        O  0.73768743  0.14884144  0.03678800    -0.83500
C186        C  0.80277833  0.20861737  0.90186530     0.97200
C187        C  0.86588357  0.27253267  0.98172900     1.04700
O188        O  0.78427543  0.21694122  0.99877870    -1.12500
O189        O  0.78100020  0.21131183  0.08836645    -0.74900
O190        O  0.81262033  0.18982326  0.06193053    -0.78400
O191        O  0.78346565  0.22124974  0.90988514    -0.79100
C192        C  0.80103832  0.19898819  0.09304620     0.96100
O193        O  0.77330338  0.14920313  0.98774301    -0.77100
O194        O  0.75048448  0.24877542  0.04496697    -0.82300
C195        C  0.70988580  0.21042075  0.97390658     0.98800
C196        C  0.77282825  0.27926350  0.03206815     1.04700
O197        O  0.73654896  0.23733756  0.95901380    -0.77900
C198        C  0.74649764  0.13302587  0.01078572     1.03000
Fe199      Fe  0.80558198  0.18215752  0.49623946     1.65800
Fe200      Fe  0.74798591  0.20140705  0.53596295     1.73200
Fe201      Fe  0.79202350  0.24163818  0.44903426     1.54400
O202        O  0.84505460  0.25587051  0.44601127    -0.81600
O203        O  0.71261356  0.18776451  0.48898126    -0.80000
O204        O  0.85298660  0.22618080  0.49715482    -0.84200
O205        O  0.80783908  0.17928323  0.43027013    -0.79000
O206        O  0.80604171  0.28017219  0.49169763    -0.80800
O207        O  0.73040247  0.14824666  0.54345027    -0.83500
C208        C  0.79337894  0.18601046  0.39982048     0.97200
C209        C  0.86479989  0.25083436  0.47074428     1.04700
O210        O  0.78242238  0.20877716  0.49414574    -1.12500
O211        O  0.78340805  0.21391247  0.58318577    -0.74900
O212        O  0.80630300  0.18189324  0.56269559    -0.78400
O213        O  0.77857229  0.20373052  0.40485222    -0.79100
C214        C  0.79993412  0.19821835  0.59098577     0.96100
O215        O  0.75915352  0.13705043  0.49485486    -0.77100
O216        O  0.75959175  0.25384882  0.53284126    -0.82300
C217        C  0.71294908  0.21193682  0.46811689     0.98800
C218        C  0.78323259  0.28114541  0.51434969     1.04700
O219        O  0.74055714  0.23411283  0.44874483    -0.77900
C220        C  0.73454669  0.12700933  0.52103907     1.03000
Fe221      Fe  0.18017874  0.37359879  0.98888868     1.65800
Fe222      Fe  0.19539846  0.45120538  0.02165522     1.73200
Fe223      Fe  0.24535784  0.44611507  0.94760999     1.54400
O224        O  0.25860331  0.40708180  0.95255388    -0.81600
O225        O  0.18774107  0.47269131  0.96952353    -0.80000
O226        O  0.22365664  0.37114911  0.00181448    -0.84200
O227        O  0.18494672  0.36797869  0.92369026    -0.79000
O228        O  0.27733398  0.46970178  0.99730211    -0.80800
O229        O  0.14150843  0.41507936  0.02007661    -0.83500
C230        C  0.19453005  0.38936605  0.89287488     0.97200
C231        C  0.25094978  0.38307151  0.97960325     1.04700
O232        O  0.20693447  0.42340284  0.98628538    -1.12500
O233        O  0.20107359  0.42878003  0.07486738    -0.74900
O234        O  0.17225005  0.37329745  0.05436787    -0.78400
O235        O  0.21338045  0.42192547  0.89770473    -0.79100
C236        C  0.18458642  0.39647275  0.08304278     0.96100
O237        O  0.13579841  0.37434987  0.97573885    -0.77100
O238        O  0.24856284  0.49302802  0.02504219    -0.82300
C239        C  0.21387570  0.49526917  0.94956686     0.98800
C240        C  0.27720641  0.49558651  0.01258633     1.04700
O241        O  0.23842407  0.48972153  0.93921676    -0.77900
C242        C  0.12297333  0.38968488  0.99558664     1.03000
Fe243      Fe  0.18528698  0.37407784  0.48874487     1.65800
Fe244      Fe  0.19512037  0.44678879  0.53174831     1.73200
Fe245      Fe  0.24887460  0.45193458  0.45550674     1.54400
O246        O  0.26602145  0.41573065  0.45415961    -0.81600
O247        O  0.18739929  0.47179522  0.48328952    -0.80000
O248        O  0.23055986  0.37389877  0.49806238    -0.84200
O249        O  0.19034677  0.37485548  0.42256902    -0.79000
O250        O  0.27914113  0.47248987  0.50694398    -0.80800
O251        O  0.14195149  0.40893831  0.52785433    -0.83500
C252        C  0.20120716  0.39863052  0.39432449     0.97200
C253        C  0.25898160  0.38995278  0.47800809     1.04700
O254        O  0.20951770  0.42396279  0.49187268    -1.12500
O255        O  0.20251284  0.42173041  0.58064917    -0.74900
O256        O  0.17784952  0.36802399  0.55461851    -0.78400
O257        O  0.21916611  0.43072761  0.40307710    -0.79100
C258        C  0.19031495  0.38940441  0.58523030     0.96100
O259        O  0.13874013  0.37164556  0.47953764    -0.77100
O260        O  0.24653925  0.48915512  0.54020372    -0.82300
C261        C  0.21367268  0.49729063  0.46665245     0.98800
C262        C  0.27643628  0.49404315  0.52965294     1.04700
O263        O  0.23922464  0.49410735  0.45413025    -0.77900
C264        C  0.12461805  0.38454622  0.50179628     1.03000
C265        C  0.18503361  0.37661757  0.84943153    -0.11900
C266        C  0.16957041  0.39023366  0.82266279     0.03500
C267        C  0.16750508  0.38387519  0.77949892    -0.12500
C268        C  0.18104496  0.36434381  0.76216138     0.18400
C269        C  0.19496622  0.34925380  0.78904844    -0.09500
C270        C  0.19653270  0.35513964  0.83251540    -0.02500
H271        H  0.15682336  0.39566102  0.75906865     0.04900
C272        C  0.18439193  0.36431915  0.71587439     0.20400
H273        H  0.20876949  0.34478635  0.85271555     0.10100
C274        C  0.21658239  0.38787374  0.69769481    -0.15900
C275        C  0.21944816  0.39445523  0.65446653     0.03100
C276        C  0.18979105  0.37698587  0.62846905    -0.11200
C277        C  0.15813577  0.35149822  0.64621534    -0.01200
C278        C  0.15521488  0.34536437  0.68973043    -0.06400
H279        H  0.23916337  0.40265035  0.71755428     0.06100
H280        H  0.13509996  0.33809800  0.62671090     0.09500
Br281      Br  0.21363992  0.32204293  0.76735295    -0.06100
Br282      Br  0.15198250  0.41870695  0.84354525    -0.03000
Br283      Br  0.26421816  0.42869316  0.63269749    -0.00200
Br284      Br  0.11058372  0.31249989  0.71264505    -0.04500
C285        C  0.19490753  0.38945106  0.34915728    -0.11900
C286        C  0.16228163  0.36403664  0.33300121     0.03500
C287        C  0.15763512  0.35911460  0.28933044    -0.12500
C288        C  0.18523937  0.37886601  0.26141625     0.18400
C289        C  0.21790982  0.40363293  0.27768100    -0.09500
C290        C  0.22248380  0.40865020  0.32099546    -0.02500
H291        H  0.13220514  0.34048739  0.27704641     0.04900
C292        C  0.17909156  0.37665839  0.21545618     0.20400
H293        H  0.24773548  0.42826359  0.33274467     0.10100
C294        C  0.16294080  0.39389114  0.19822665    -0.15900
C295        C  0.16282971  0.39873765  0.15480042     0.03100
C296        C  0.17893484  0.38608973  0.12774844    -0.11200
C297        C  0.19271430  0.36648937  0.14466885    -0.01200
C298        C  0.19301726  0.36184860  0.18830696    -0.06400
H299        H  0.15190680  0.40512265  0.21877436     0.06100
H300        H  0.20491698  0.35641847  0.12418353     0.09500
Br301      Br  0.25653311  0.43306103  0.24181992    -0.06100
Br302      Br  0.12261280  0.33759183  0.36858916    -0.03000
Br303      Br  0.14082151  0.42335283  0.13390646    -0.00200
Br304      Br  0.21433108  0.33682604  0.20975180    -0.04500
C305        C  0.90302113  0.27348548  0.46893286    -0.11900
C306        C  0.91942535  0.30996147  0.47057766     0.03500
C307        C  0.95577354  0.32997940  0.47456401    -0.12500
C308        C  0.97604856  0.31410448  0.47685681     0.18400
C309        C  0.95975907  0.27776979  0.47440495    -0.09500
C310        C  0.92357130  0.25781245  0.47056219    -0.02500
H311        H  0.96821467  0.35794857  0.47669128     0.04900
C312        C  0.01410795  0.33550626  0.48272658     0.20400
H313        H  0.91130952  0.22979391  0.46968166     0.10100
C314        C  0.02769891  0.34566196  0.52337236    -0.15900
C315        C  0.06376109  0.36276098  0.53047446     0.03100
C316        C  0.08672440  0.37018169  0.49632229    -0.11200
C317        C  0.07288244  0.36091031  0.45556026    -0.01200
C318        C  0.03697224  0.34360714  0.44861595    -0.06400
H319        H  0.01010987  0.33902804  0.54982456     0.06100
H320        H  0.09011596  0.36658841  0.42896286     0.09500
Br321      Br  0.98582231  0.25426616  0.47781266    -0.06100
Br322      Br  0.89336009  0.33346908  0.47141629    -0.03000
Br323      Br  0.07971756  0.37202542  0.58758580    -0.00200
Br324      Br  0.02018113  0.33027679  0.39227478    -0.04500
C325        C  0.90287802  0.29998920  0.98192236    -0.11900
C326        C  0.92198753  0.31087092  0.01975182     0.03500
C327        C  0.95828006  0.33142372  0.01848638    -0.12500
C328        C  0.97597413  0.34150278  0.97999950     0.18400
C329        C  0.95679474  0.33292459  0.94233652    -0.09500
C330        C  0.92040621  0.31248100  0.94351276    -0.02500
H331        H  0.97289086  0.33812592  0.04761180     0.04900
C332        C  0.01400415  0.35580245  0.98002024     0.20400
H333        H  0.90601545  0.30455066  0.91424654     0.10100
C334        C  0.02633595  0.33356140  0.96959305    -0.15900
C335        C  0.06147809  0.34388894  0.97414437     0.03100
C336        C  0.08533413  0.37748573  0.98976645    -0.11200
C337        C  0.07282459  0.40002284  0.99921210    -0.01200
C338        C  0.03749170  0.38941137  0.99438229    -0.06400
H339        H  0.00816823  0.30746735  0.95899650     0.06100
H340        H  0.09055062  0.42604427  0.01028718     0.09500
Br341      Br  0.97940552  0.34717151  0.88872236    -0.06100
Br342      Br  0.89993125  0.29809411  0.07395384    -0.03000
Br343      Br  0.07360207  0.30937278  0.96041387    -0.00200
Br344      Br  0.02232400  0.42158984  0.00708284    -0.04500
C345        C  0.80595817  0.20110878  0.85728262    -0.11900
C346        C  0.83761378  0.20683474  0.83947721     0.03500
C347        C  0.84014151  0.20410039  0.79585306    -0.12500
C348        C  0.81165539  0.19583386  0.76958467     0.18400
C349        C  0.77986174  0.18893299  0.78741195    -0.09500
C350        C  0.77720206  0.19147663  0.83075725    -0.02500
H351        H  0.86479508  0.20982867  0.78218980     0.04900
C352        C  0.81589149  0.19765979  0.72344541     0.20400
H353        H  0.75270605  0.18695321  0.84365568     0.10100
C354        C  0.80492290  0.16714350  0.70048669    -0.15900
C355        C  0.80215562  0.16714748  0.65657247     0.03100
C356        C  0.81032802  0.19814893  0.63514867    -0.11200
C357        C  0.82330183  0.22898976  0.65819762    -0.01200
C358        C  0.82622634  0.22895272  0.70190620    -0.06400
H359        H  0.79661249  0.14291450  0.71695492     0.06100
H360        H  0.82959703  0.25296983  0.64229998     0.09500
Br361      Br  0.73996239  0.17821946  0.75342971    -0.06100
Br362      Br  0.87924527  0.22189673  0.87196532    -0.03000
Br363      Br  0.78292165  0.12335204  0.62848921    -0.00200
Br364      Br  0.84158167  0.27169612  0.73127766    -0.04500
C365        C  0.80923129  0.19359157  0.13648140    -0.11900
C366        C  0.80224948  0.16067484  0.15086167     0.03500
C367        C  0.80250356  0.15446269  0.19413092    -0.12500
C368        C  0.81022778  0.18084371  0.22326338     0.18400
C369        C  0.82001400  0.21435334  0.20861444    -0.09500
C370        C  0.81902470  0.22038590  0.16565058    -0.02500
H371        H  0.79482835  0.12858762  0.20514943     0.04900
C372        C  0.80293860  0.17258669  0.26851717     0.20400
H373        H  0.82459356  0.24578287  0.15510009     0.10100
C374        C  0.82946425  0.17640550  0.29576585    -0.15900
C375        C  0.82575596  0.17745079  0.33949834     0.03100
C376        C  0.79512109  0.17505394  0.35630243    -0.11200
C377        C  0.76751388  0.16797588  0.32885875    -0.01200
C378        C  0.77117643  0.16663323  0.28545361    -0.06400
H379        H  0.85396360  0.18091816  0.28291242     0.06100
H380        H  0.74364127  0.16556385  0.34102936     0.09500
Br381      Br  0.83236828  0.25203916  0.24665618    -0.06100
Br382      Br  0.78830126  0.12228899  0.11342461    -0.03000
Br383      Br  0.86509772  0.18653499  0.37366930    -0.00200
Br384      Br  0.73334574  0.16016920  0.25006521    -0.04500
C385        C  0.30862114  0.52787212  0.53660104    -0.11900
C386        C  0.34179616  0.53141729  0.53031801     0.03500
C387        C  0.37048570  0.56389444  0.52111077    -0.12500
C388        C  0.36733113  0.59348123  0.51943355     0.18400
C389        C  0.33543832  0.59080959  0.53026692    -0.09500
C390        C  0.30625397  0.55810938  0.53861497    -0.02500
H391        H  0.39546219  0.56607967  0.51474911     0.04900
C392        C  0.39854196  0.62693330  0.50858166     0.20400
H393        H  0.28126031  0.55620692  0.54369692     0.10100
C394        C  0.40220777  0.64177578  0.46838286    -0.15900
C395        C  0.43361839  0.67155644  0.45641948     0.03100
C396        C  0.46176605  0.68622881  0.48475588    -0.11200
C397        C  0.45743016  0.67138863  0.52501888    -0.01200
C398        C  0.42629141  0.64233793  0.53706518    -0.06400
H399        H  0.38091840  0.62979054  0.44612957     0.06100
H400        H  0.47830656  0.68291325  0.54788736     0.09500
Br401      Br  0.33075696  0.63107715  0.53309814    -0.06100
Br402      Br  0.34984296  0.49297911  0.53285331    -0.03000
Br403      Br  0.43761403  0.69023872  0.40104002    -0.00200
Br404      Br  0.42268811  0.62480848  0.59318536    -0.04500
C405        C  0.60667949  0.90822956  0.49960547    -0.11900
C406        C  0.60975942  0.92237858  0.54002247     0.03500
C407        C  0.62563420  0.95827306  0.54496559    -0.12500
C408        C  0.63933871  0.98043438  0.51020663     0.18400
C409        C  0.63525744  0.96631151  0.46970109    -0.09500
C410        C  0.61827082  0.93033945  0.46457382    -0.02500
H411        H  0.62909476  0.96902633  0.57623612     0.04900
C412        C  0.66276507  0.01777988  0.51733066     0.20400
H413        H  0.61627235  0.91979107  0.43348919     0.10100
C414        C  0.69863743  0.03040120  0.51680975    -0.15900
C415        C  0.72235328  0.06575166  0.52049494     0.03100
C416        C  0.71019195  0.08933501  0.52460123    -0.11200
C417        C  0.67414509  0.07642907  0.52772181    -0.01200
C418        C  0.65037335  0.04075684  0.52410195    -0.06400
H419        H  0.70822374  0.01259965  0.51276130     0.06100
H420        H  0.66442800  0.09417307  0.53102590     0.09500
Br421      Br  0.65519862  0.99525324  0.42105027    -0.06100
Br422      Br  0.59390298  0.89397186  0.58962326    -0.03000
Br423      Br  0.77100967  0.07989101  0.52018140    -0.00200
Br424      Br  0.60143114  0.02459504  0.52656218    -0.04500
C425        C  0.46912068  0.68762979  0.96657042    -0.11900
C426        C  0.43757414  0.68622552  0.95524516     0.03500
C427        C  0.40525725  0.65675489  0.96564511    -0.12500
C428        C  0.40360860  0.62847222  0.98736761     0.18400
C429        C  0.43473489  0.62921199  0.99702694    -0.09500
C430        C  0.46670367  0.65813657  0.98647056    -0.02500
H431        H  0.38130629  0.65576643  0.95643772     0.04900
C432        C  0.36974588  0.59612258  0.99439611     0.20400
H433        H  0.48996308  0.65772166  0.99540941     0.10100
C434        C  0.35813593  0.57090533  0.96319580    -0.15900
C435        C  0.32879475  0.53821481  0.96925521     0.03100
C436        C  0.30951272  0.53002745  0.00738021    -0.11200
C437        C  0.32065492  0.55576401  0.03844648    -0.01200
C438        C  0.35099926  0.58841101  0.03250183    -0.06400
H439        H  0.37259274  0.57651332  0.93402555     0.06100
H440        H  0.30625373  0.55025578  0.06760322     0.09500
Br441      Br  0.43493881  0.59109244  0.02490752    -0.06100
Br442      Br  0.43636364  0.72273439  0.92488983    -0.03000
Br443      Br  0.31637310  0.50705125  0.92242436    -0.00200
Br444      Br  0.36654575  0.62142065  0.07728785    -0.04500
C445        C  0.72535719  0.09463508  0.00663783    -0.11900
C446        C  0.69970933  0.07284229  0.03622251     0.03500
C447        C  0.68119674  0.03690125  0.03017415    -0.12500
C448        C  0.68828664  0.02173558  0.99595425     0.18400
C449        C  0.71361458  0.04326928  0.96639938    -0.09500
C450        C  0.73154519  0.07919490  0.97170690    -0.02500
H451        H  0.66168165  0.02047099  0.05305300     0.04900
C452        C  0.67007059  0.98342122  0.99285650     0.20400
H453        H  0.75091080  0.09507282  0.94840807     0.10100
C454        C  0.64942015  0.96662833  0.95760520    -0.15900
C455        C  0.63241788  0.93042537  0.95362968     0.03100
C456        C  0.63470144  0.91014055  0.98643692    -0.11200
C457        C  0.65533046  0.92736113  0.02178149    -0.01200
C458        C  0.67328693  0.96341435  0.02485071    -0.06400
H459        H  0.64705369  0.98187419  0.93262735     0.06100
H460        H  0.65817619  0.91279609  0.04723338     0.09500
Br461      Br  0.72642207  0.02507871  0.91957387    -0.06100
Br462      Br  0.68958462  0.08933971  0.08688110    -0.03000
Br463      Br  0.60893729  0.91126801  0.90141638    -0.00200
Br464      Br  0.70361971  0.98397017  0.07230993    -0.04500
C465        C  0.60797700  0.81268530  0.64477775    -0.11900
C466        C  0.58732534  0.81705597  0.67511744     0.03500
C467        C  0.59699361  0.82111793  0.71740742    -0.12500
C468        C  0.62700850  0.82096368  0.73046024     0.18400
C469        C  0.64873118  0.81862705  0.70022208    -0.09500
C470        C  0.63928077  0.81476664  0.65766532    -0.02500
H471        H  0.58029421  0.82319306  0.74054945     0.04900
C472        C  0.63250488  0.81943476  0.77606109     0.20400
H473        H  0.65559259  0.81167707  0.63491357     0.10100
C474        C  0.62108514  0.78685080  0.79457108    -0.15900
C475        C  0.61730092  0.78254332  0.83817408     0.03100
C476        C  0.62576365  0.81122934  0.86394499    -0.11200
C477        C  0.63994128  0.84433704  0.84569879    -0.01200
C478        C  0.64295581  0.84852456  0.80195150    -0.06400
H479        H  0.61267984  0.76426972  0.77487802     0.06100
H480        H  0.64589725  0.86648113  0.86520241     0.09500
Br481      Br  0.69087650  0.81968838  0.71599801    -0.06100
Br482      Br  0.54557087  0.81770255  0.66123494    -0.03000
Br483      Br  0.59776206  0.73663849  0.86117972    -0.00200
Br484      Br  0.65849741  0.89370110  0.77859115    -0.04500
C485        C  0.60896906  0.80741169  0.14268460    -0.11900
C486        C  0.63265650  0.80102441  0.16495976     0.03500
C487        C  0.63530138  0.80482921  0.20880609    -0.12500
C488        C  0.61455850  0.81483415  0.23100560     0.18400
C489        C  0.59194791  0.82250680  0.20858291    -0.09500
C490        C  0.58929069  0.81872322  0.16492123    -0.02500
H491        H  0.65240991  0.79841712  0.22587421     0.04900
C492        C  0.61369517  0.81340183  0.27756087     0.20400
H493        H  0.57077235  0.82346212  0.14835975     0.10100
C494        C  0.62902157  0.84420437  0.30097621    -0.15900
C495        C  0.62476288  0.84333011  0.34476256     0.03100
C496        C  0.60483121  0.81121870  0.36563601    -0.11200
C497        C  0.59048915  0.78049490  0.34222490    -0.01200
C498        C  0.59489374  0.78135143  0.29868301    -0.06400
H499        H  0.64318166  0.86899421  0.28495005     0.06100
H500        H  0.57472250  0.75568714  0.35776020     0.09500
Br501      Br  0.56203854  0.83546974  0.23654596    -0.06100
Br502      Br  0.65885231  0.78316277  0.13795823    -0.03000
Br503      Br  0.64355310  0.88664638  0.37379511    -0.00200
Br504      Br  0.57242968  0.73810839  0.26904077    -0.04500
C505        C  0.77893849  0.47110157  0.48720609    -0.11900
C506        C  0.80815227  0.46886686  0.50141297     0.03500
C507        C  0.80555830  0.43653429  0.50625389    -0.12500
C508        C  0.77510877  0.40595928  0.49553760     0.18400
C509        C  0.74726149  0.40808605  0.47773881    -0.09500
C510        C  0.74892402  0.44027273  0.47454577    -0.02500
H511        H  0.82775959  0.43523231  0.51799817     0.04900
C512        C  0.77463721  0.37268659  0.50017619     0.20400
H513        H  0.72638057  0.44099047  0.46298421     0.10100
C514        C  0.76493718  0.35443510  0.53858958    -0.15900
C515        C  0.76772829  0.32467501  0.54469686     0.03100
C516        C  0.78115320  0.31332730  0.51226464    -0.11200
C517        C  0.79060993  0.33182238  0.47393831    -0.01200
C518        C  0.78729145  0.36094178  0.46771782    -0.06400
H519        H  0.75563128  0.36365384  0.56403529     0.06100
H520        H  0.80008946  0.32320862  0.44802964     0.09500
Br521      Br  0.70719190  0.36787129  0.45616474    -0.06100
Br522      Br  0.85309747  0.50829276  0.51441526    -0.03000
Br523      Br  0.75468856  0.30177291  0.59828183    -0.00200
Br524      Br  0.80055665  0.38410188  0.41424226    -0.04500
C525        C  0.70065290  0.61888532  0.50566224    -0.11900
C526        C  0.69348600  0.62940301  0.54436227     0.03500
C527        C  0.67464613  0.64674962  0.54517787    -0.12500
C528        C  0.66248710  0.65379927  0.50793094     0.18400
C529        C  0.66770809  0.64146313  0.46956412    -0.09500
C530        C  0.68650429  0.62396085  0.46864957    -0.02500
H531        H  0.67036514  0.65572674  0.57491155     0.04900
C532        C  0.64729248  0.67666433  0.50952109     0.20400
H533        H  0.69158126  0.61591332  0.43872372     0.10100
C534        C  0.66841483  0.71178623  0.49895736    -0.15900
C535        C  0.65597806  0.73492247  0.50195680     0.03100
C536        C  0.62140049  0.72295301  0.51579864    -0.11200
C537        C  0.60036787  0.68759362  0.52649734    -0.01200
C538        C  0.61302520  0.66458346  0.52342268    -0.06400
H539        H  0.69503797  0.72138244  0.48889804     0.06100
H540        H  0.57376501  0.67762377  0.53684708     0.09500
Br541      Br  0.65049406  0.64899341  0.41768839    -0.06100
Br542      Br  0.70862722  0.62051878  0.59715005    -0.03000
Br543      Br  0.68865604  0.78269152  0.48885222    -0.00200
Br544      Br  0.58252120  0.61672316  0.53767688    -0.04500
C545        C  0.76586339  0.30801903  0.03493413    -0.11900
C546        C  0.79020319  0.33978633  0.05323231     0.03500
C547        C  0.79057745  0.37031683  0.04171126    -0.12500
C548        C  0.76782267  0.36985075  0.01061705     0.18400
C549        C  0.74319075  0.33790516  0.99273851    -0.09500
C550        C  0.74153499  0.30731940  0.00619814    -0.02500
H551        H  0.80973212  0.39472414  0.05561863     0.04900
C552        C  0.77122297  0.40296820  0.99587220     0.20400
H553        H  0.72369291  0.28342540  0.99041655     0.10100
C554        C  0.80291368  0.42882183  0.97836388    -0.15900
C555        C  0.80764769  0.46135968  0.96713382     0.03100
C556        C  0.78003296  0.46794023  0.97199721    -0.11200
C557        C  0.74769470  0.44111289  0.98649769    -0.01200
C558        C  0.74357480  0.40950245  0.00004350    -0.06400
H559        H  0.82431531  0.42407601  0.97474424     0.06100
H560        H  0.72672831  0.44584392  0.99142736     0.09500
Br561      Br  0.71518358  0.33510054  0.94517389    -0.06100
Br562      Br  0.82480699  0.34265972  0.09165279    -0.03000
Br563      Br  0.85231989  0.49623827  0.94626842    -0.00200
Br564      Br  0.70144314  0.37846541  0.02961721    -0.04500
C565        C  0.71815767  0.62444887  0.00284065    -0.11900
C566        C  0.69741062  0.62460590  0.96904428     0.03500
C567        C  0.67682753  0.63997358  0.97419672    -0.12500
C568        C  0.67593488  0.65471844  0.01265095     0.18400
C569        C  0.69442465  0.65222794  0.04706178    -0.09500
C570        C  0.71545669  0.63757184  0.04190372    -0.02500
H571        H  0.66241435  0.64154630  0.94762837     0.04900
C572        C  0.65871959  0.67569745  0.01532785     0.20400
H573        H  0.73006871  0.63675612  0.06871284     0.10100
C574        C  0.62219243  0.65962783  0.01532350    -0.15900
C575        C  0.60576125  0.67945379  0.01771394     0.03100
C576        C  0.62606986  0.71598220  0.02031177    -0.11200
C577        C  0.66260581  0.73176428  0.01997695    -0.01200
C578        C  0.67889228  0.71211381  0.01723848    -0.06400
H579        H  0.60645884  0.63163606  0.01304862     0.06100
H580        H  0.67874357  0.75978130  0.02128168     0.09500
Br581      Br  0.69219001  0.66911705  0.10162394    -0.06100
Br582      Br  0.69711882  0.60629923  0.91445213    -0.03000
Br583      Br  0.55593371  0.65559598  0.01379891    -0.00200
Br584      Br  0.72890860  0.73640399  0.01418016    -0.04500
C585        C  0.81511213  0.62496812  0.87571020    -0.11900
C586        C  0.80591847  0.64888913  0.85991343     0.03500
C587        C  0.80469172  0.65323007  0.81627621    -0.12500
C588        C  0.81302467  0.63439571  0.78813147     0.18400
C589        C  0.82465753  0.61256170  0.80404394    -0.09500
C590        C  0.82557184  0.60799775  0.84734086    -0.02500
H591        H  0.79583959  0.67018283  0.80427826     0.04900
C592        C  0.80696115  0.63500098  0.74242857     0.20400
H593        H  0.83255401  0.58945613  0.85886346     0.10100
C594        C  0.83561014  0.65304537  0.71545605    -0.15900
C595        C  0.83206057  0.64727746  0.67200176     0.03100
C596        C  0.79936983  0.62304124  0.65497702    -0.11200
C597        C  0.77028163  0.60678242  0.68175584    -0.01200
C598        C  0.77380454  0.61277131  0.72511009    -0.06400
H599        H  0.86126305  0.66983988  0.72855772     0.06100
H600        H  0.74502187  0.58800776  0.66914685     0.09500
Br601      Br  0.83645659  0.58582058  0.76774337    -0.06100
Br602      Br  0.79140622  0.67351001  0.89604302    -0.03000
Br603      Br  0.87354124  0.66943506  0.63834498    -0.00200
Br604      Br  0.73326830  0.58747109  0.75988272    -0.04500
C605        C  0.80576920  0.60588639  0.15547057    -0.11900
C606        C  0.80329264  0.63409817  0.17119384     0.03500
C607        C  0.80372367  0.63916868  0.21479103    -0.12500
C608        C  0.80727576  0.61691582  0.24304158     0.18400
C609        C  0.81086896  0.58954170  0.22731488    -0.09500
C610        C  0.80999080  0.58418812  0.18406639    -0.02500
H611        H  0.80036733  0.65995871  0.22673825     0.04900
C612        C  0.80276322  0.61935289  0.28868188     0.20400
H613        H  0.81233340  0.56262407  0.17272775     0.10100
C614        C  0.76876556  0.60300532  0.30469440    -0.15900
C615        C  0.76274202  0.59843994  0.34792934     0.03100
C616        C  0.79106194  0.61065626  0.37602374    -0.11200
C617        C  0.82519823  0.62911255  0.36023146    -0.01200
C618        C  0.83119051  0.63331916  0.31673473    -0.06400
H619        H  0.74676692  0.59223004  0.28335592     0.06100
H620        H  0.84713659  0.63858241  0.38154464     0.09500
Br621      Br  0.81525392  0.55764240  0.26390568    -0.06100
Br622      Br  0.79654242  0.66475437  0.13513930    -0.03000
Br623      Br  0.71523786  0.57457208  0.36705125    -0.00200
Br624      Br  0.87834652  0.65638616  0.29679406    -0.04500
C625        C  0.45460108  0.77439032  0.53649070    -0.11900
C626        C  0.44738955  0.80030493  0.54919067     0.03500
C627        C  0.41763607  0.80023219  0.53392194    -0.12500
C628        C  0.39531060  0.77513872  0.50481215     0.18400
C629        C  0.40239046  0.74902763  0.49266129    -0.09500
C630        C  0.43089092  0.74813541  0.50973493    -0.02500
H631        H  0.41245376  0.82035238  0.54385321     0.04900
C632        C  0.36479316  0.77626590  0.48733185     0.20400
H633        H  0.43644160  0.72872689  0.49844661     0.10100
C634        C  0.36953368  0.80536016  0.46442974    -0.15900
C635        C  0.34073352  0.80718747  0.44933728     0.03100
C636        C  0.30654156  0.77902231  0.45557419    -0.11200
C637        C  0.30238426  0.74920670  0.47576921    -0.01200
C638        C  0.33067860  0.74831747  0.49341803    -0.06400
H639        H  0.39565238  0.82713882  0.45936593     0.06100
H640        H  0.27636478  0.72758334  0.48201537     0.09500
Br641      Br  0.37676027  0.71668007  0.44865641    -0.06100
Br642      Br  0.47826272  0.83674585  0.58621847    -0.03000
Br643      Br  0.34906499  0.84890832  0.42153887    -0.00200
Br644      Br  0.32101565  0.71073028  0.53085970    -0.04500
C645        C  0.21601626  0.53185205  0.46954534    -0.11900
C646        C  0.24683791  0.56397142  0.46128379     0.03500
C647        C  0.24902797  0.59525559  0.47354203    -0.12500
C648        C  0.22112630  0.59532372  0.49402542     0.18400
C649        C  0.19011320  0.56375210  0.50056582    -0.09500
C650        C  0.18770998  0.53269411  0.48835805    -0.02500
H651        H  0.27238094  0.61970946  0.46641567     0.04900
C652        C  0.22172880  0.62829680  0.50124688     0.20400
H653        H  0.16351247  0.50888373  0.49486683     0.10100
C654        C  0.20798037  0.63946818  0.46959358    -0.15900
C655        C  0.20377532  0.66797091  0.47530275     0.03100
C656        C  0.21400108  0.68673479  0.51359534    -0.11200
C657        C  0.22875886  0.67607503  0.54521571    -0.01200
C658        C  0.23207769  0.64659089  0.53952476    -0.06400
H659        H  0.19977335  0.62534367  0.44024646     0.06100
H660        H  0.23729158  0.69036562  0.57438491     0.09500
Br661      Br  0.14992109  0.56189333  0.52559626    -0.06100
Br662      Br  0.28654131  0.56752467  0.43274438    -0.03000
Br663      Br  0.18539993  0.68020072  0.42768512    -0.00200
Br664      Br  0.25025810  0.63181781  0.58461283    -0.04500
C665        C  0.90020864  0.62967416  0.52154132    -0.11900
C666        C  0.92299387  0.62874580  0.55203577     0.03500
C667        C  0.95898214  0.64502261  0.54370905    -0.12500
C668        C  0.97290533  0.66208394  0.50532396     0.18400
C669        C  0.95021757  0.66195947  0.47448718    -0.09500
C670        C  0.91449537  0.64600941  0.48268133    -0.02500
H671        H  0.97633846  0.64513066  0.56772748     0.04900
C672        C  0.01125752  0.68213757  0.49887003     0.20400
H673        H  0.89780131  0.64668682  0.45830547     0.10100
C674        C  0.02917314  0.66543591  0.48567592    -0.15900
C675        C  0.06543162  0.68426586  0.47864884     0.03100
C676        C  0.08443651  0.72059067  0.48515159    -0.11200
C677        C  0.06600082  0.73698434  0.49801282    -0.01200
C678        C  0.03001744  0.71824731  0.50479149    -0.06400
H679        H  0.01488092  0.63762479  0.48087688     0.06100
H680        H  0.07967194  0.76477310  0.50298638     0.09500
Br681      Br  0.96703399  0.68391697  0.42082918    -0.06100
Br682      Br  0.90743230  0.60757956  0.60631983    -0.03000
Br683      Br  0.08734628  0.65853664  0.46238389    -0.00200
Br684      Br  0.00760215  0.74317659  0.52260245    -0.04500
C685        C  0.31541799  0.78591349  0.95853481    -0.11900
C686        C  0.34744602  0.81671059  0.96659297     0.03500
C687        C  0.37745432  0.81506725  0.97490164    -0.12500
C688        C  0.37684977  0.78341506  0.97366898     0.18400
C689        C  0.34614335  0.75348765  0.96064685    -0.09500
C690        C  0.31563637  0.75474770  0.95360360    -0.02500
H691        H  0.40134898  0.83861738  0.98311477     0.04900
C692        C  0.40878136  0.78268939  0.98566196     0.20400
H693        H  0.29168389  0.73089632  0.94665288     0.10100
C694        C  0.40930146  0.76491876  0.02214024    -0.15900
C695        C  0.44006725  0.76584402  0.03524270     0.03100
C696        C  0.47119234  0.78564610  0.01229648    -0.11200
C697        C  0.47016486  0.80329781  0.97586219    -0.01200
C698        C  0.43950620  0.80147158  0.96221294    -0.06400
H699        H  0.38573666  0.75045778  0.04058977     0.06100
H700        H  0.49315155  0.81757806  0.95640240     0.09500
Br701      Br  0.34504700  0.71070144  0.95153471    -0.06100
Br702      Br  0.35196216  0.86186877  0.96737830    -0.03000
Br703      Br  0.43835912  0.74072583  0.08501776    -0.00200
Br704      Br  0.44039539  0.82304260  0.90949381    -0.04500
C705        C  0.22205269  0.68518779  0.01097416    -0.11900
C706        C  0.22706569  0.66509404  0.04130651     0.03500
C707        C  0.22998949  0.63644705  0.02853793    -0.12500
C708        C  0.22842691  0.62789866  0.98567340     0.18400
C709        C  0.22500801  0.64902811  0.95553355    -0.09500
C710        C  0.22147072  0.67690672  0.96825790    -0.02500
H711        H  0.23221594  0.62009919  0.05211305     0.04900
C712        C  0.22603950  0.59486702  0.97257887     0.20400
H713        H  0.21777221  0.69206785  0.94431539     0.10100
C714        C  0.19364779  0.56751502  0.95931530    -0.15900
C715        C  0.18960852  0.53554528  0.94745804     0.03100
C716        C  0.21862520  0.53060308  0.94764665    -0.11200
C717        C  0.25148208  0.55884862  0.95828086    -0.01200
C718        C  0.25517178  0.59039800  0.97167595    -0.06400
H719        H  0.17109392  0.57076989  0.95935863     0.06100
H720        H  0.27394910  0.55557131  0.95956989     0.09500
Br721      Br  0.22436196  0.64037922  0.89639878    -0.06100
Br722      Br  0.22684876  0.67397120  0.10004704    -0.03000
Br723      Br  0.14341377  0.49915165  0.93316017    -0.00200
Br724      Br  0.29993215  0.62556829  0.99108355    -0.04500
C725        C  0.08894953  0.71231613  0.98118388    -0.11900
C726        C  0.06604103  0.72554969  0.98234169     0.03500
C727        C  0.03096293  0.70366655  0.99208739    -0.12500
C728        C  0.01797383  0.66860454  0.00127465     0.18400
C729        C  0.04036293  0.65496558  0.99933987    -0.09500
C730        C  0.07565645  0.67680847  0.98903141    -0.02500
H731        H  0.01365974  0.71413414  0.99285369     0.04900
C732        C  0.98048407  0.64697809  0.01081007     0.20400
H733        H  0.09301078  0.66640567  0.98905355     0.10100
C734        C  0.95723719  0.63273962  0.97716675    -0.15900
C735        C  0.92145680  0.61822738  0.98337268     0.03100
C736        C  0.90835547  0.61729908  0.02394346    -0.11200
C737        C  0.93141129  0.62980879  0.05812316    -0.01200
C738        C  0.96744646  0.64510535  0.05167121    -0.06400
H739        H  0.96713621  0.63451316  0.94561127     0.06100
H740        H  0.92161082  0.62954465  0.08934843     0.09500
Br741      Br  0.02397209  0.60719559  0.01221247    -0.06100
Br742      Br  0.08090112  0.77332198  0.97076047    -0.03000
Br743      Br  0.89153449  0.60108405  0.93510771    -0.00200
Br744      Br  0.99815687  0.66550852  0.09867333    -0.04500
C745        C  0.19674359  0.81038688  0.85505540    -0.11900
C746        C  0.16714261  0.80774171  0.83497340     0.03500
C747        C  0.16704028  0.81147237  0.79118021    -0.12500
C748        C  0.19608777  0.81790469  0.76706665     0.18400
C749        C  0.22647596  0.82314197  0.78736564    -0.09500
C750        C  0.22661061  0.81936688  0.83092165    -0.02500
H751        H  0.14351162  0.80723632  0.77565474     0.04900
C752        C  0.19283626  0.81393262  0.72096280     0.20400
H753        H  0.24966109  0.82175305  0.84579886     0.10100
C754        C  0.20061999  0.84247142  0.69511432    -0.15900
C755        C  0.20164679  0.83992657  0.65125778     0.03100
C756        C  0.19457851  0.80829919  0.63287127    -0.11200
C757        C  0.18559785  0.77952680  0.65895899    -0.01200
C758        C  0.18464714  0.78212020  0.70256554    -0.06400
H759        H  0.20737587  0.86713279  0.70915731     0.06100
H760        H  0.18039725  0.75515880  0.64539284     0.09500
Br761      Br  0.26738220  0.83253358  0.75641847    -0.06100
Br762      Br  0.12476199  0.79479855  0.86457583    -0.03000
Br763      Br  0.21678197  0.88136062  0.61856696    -0.00200
Br764      Br  0.17392443  0.74203484  0.73604403    -0.04500
C765        C  0.18215089  0.79903211  0.13340718    -0.11900
C766        C  0.16721190  0.77023052  0.16093761     0.03500
C767        C  0.16341977  0.77497452  0.20368454    -0.12500
C768        C  0.17464331  0.80819006  0.21977517     0.18400
C769        C  0.18757096  0.83660116  0.19191582    -0.09500
C770        C  0.19082906  0.83181976  0.14901956    -0.02500
H771        H  0.15342679  0.75291917  0.22487113     0.04900
C772        C  0.17836339  0.81318630  0.26589686     0.20400
H773        H  0.20228483  0.85421216  0.12829805     0.10100
C774        C  0.21138032  0.82492037  0.28344994    -0.14700
C775        C  0.21558560  0.82407808  0.32686209     0.03100
C776        C  0.18643698  0.81144389  0.35370761    -0.11200
C777        C  0.15378741  0.80232497  0.33646227    -0.01200
C778        C  0.14956816  0.80292515  0.29274034    -0.06400
H779        H  0.23375144  0.83315524  0.26309530     0.06100
H780        H  0.13113905  0.79248299  0.35669138     0.09500
Br781      Br  0.20302400  0.88261977  0.21166511    -0.06100
Br782      Br  0.15207238  0.72403714  0.14186379    -0.03000
Br783      Br  0.26156708  0.83918665  0.34793562    -0.00200
Br784      Br  0.10400911  0.78814703  0.27081168    -0.04500
C785        C  0.52854608  0.31639536  0.49322324    -0.11900
C786        C  0.55834406  0.33389716  0.46766552     0.03500
C787        C  0.58916657  0.36160569  0.48444010    -0.12500
C788        C  0.59071476  0.37149237  0.52674156     0.18400
C789        C  0.56130185  0.35316345  0.55239659    -0.09500
C790        C  0.53061496  0.32639928  0.53552628    -0.02500
H791        H  0.61164536  0.37600491  0.46426572     0.04900
C792        C  0.62104222  0.40383589  0.54224958     0.20400
H793        H  0.50827426  0.31277773  0.55612768     0.10100
C794        C  0.61738285  0.43295237  0.54703817    -0.15900
C795        C  0.64580267  0.46502861  0.55802098     0.03100
C796        C  0.67917106  0.46873914  0.56280638    -0.11200
C797        C  0.68196722  0.43873022  0.56228158    -0.01200
C798        C  0.65299685  0.40629965  0.55254162    -0.06400
H799        H  0.59237945  0.43087623  0.54112443     0.06100
H800        H  0.70713799  0.44078101  0.56639431     0.09500
Br801      Br  0.56199225  0.36362609  0.61095315    -0.06100
Br802      Br  0.55732240  0.32211127  0.40970461    -0.03000
Br803      Br  0.63754220  0.50310153  0.56406458    -0.00200
Br804      Br  0.65805332  0.36621491  0.55355017    -0.04500
C805        C  0.68451562  0.21904860  0.47727410    -0.11900
C806        C  0.66491804  0.22453527  0.44670355     0.03500
C807        C  0.63657007  0.22823156  0.45928820    -0.12500
C808        C  0.62854844  0.22809930  0.50225289     0.18400
C809        C  0.64993445  0.22512044  0.53252838    -0.09500
C810        C  0.67688336  0.21990174  0.51996023    -0.02500
H811        H  0.62042588  0.23061155  0.43553303     0.04900
C812        C  0.59685291  0.22884600  0.51559445     0.20400
H813        H  0.69220745  0.21661301  0.54408043     0.10100
C814        C  0.57089821  0.20069035  0.53870580    -0.15900
C815        C  0.54018764  0.19980765  0.55086939     0.03100
C816        C  0.53506416  0.22756943  0.54049141    -0.11200
C817        C  0.56188676  0.25654839  0.51967007    -0.01200
C818        C  0.59212622  0.25704607  0.50640653    -0.06400
H819        H  0.57410748  0.17879505  0.54626739     0.06100
H820        H  0.55810028  0.27766225  0.51037471     0.09500
Br821      Br  0.64421047  0.22901325  0.59169440    -0.06100
Br822      Br  0.67488834  0.22539236  0.38804896    -0.03000
Br823      Br  0.50529829  0.15968550  0.58035551    -0.00200
Br824      Br  0.62487355  0.29584403  0.47362250    -0.04500
C825        C  0.38363516  0.09448098  0.49505377    -0.11900
C826        C  0.37026897  0.07573778  0.53301493     0.03500
C827        C  0.35449516  0.03960106  0.53338814    -0.12500
C828        C  0.35264699  0.02136075  0.49685591     0.18400
C829        C  0.36841645  0.04025023  0.45970250    -0.09500
C830        C  0.38366721  0.07646679  0.45903517    -0.02500
H831        H  0.34264074  0.02556359  0.56219116     0.04900
C832        C  0.33077066  0.98285014  0.49718637     0.20400
H833        H  0.39428931  0.09037398  0.42981646     0.10100
C834        C  0.30205637  0.96714709  0.47014853    -0.15900
C835        C  0.27900541  0.93134439  0.47079612     0.03100
C836        C  0.28363523  0.91006617  0.50042940    -0.11200
C837        C  0.31274676  0.92594722  0.52733779    -0.01200
C838        C  0.33621588  0.96184740  0.52579787    -0.06400
H839        H  0.29731063  0.98304094  0.44840111     0.06100
H840        H  0.31729189  0.91048027  0.54995299     0.09500
Br841      Br  0.36949142  0.01779943  0.40892854    -0.06100
Br842      Br  0.37322976  0.09777825  0.58581221    -0.03000
Br843      Br  0.24272988  0.91445826  0.42900384    -0.00200
Br844      Br  0.37574615  0.98073857  0.56269736    -0.04500
C845        C  0.28397266  0.37747261  0.48375082    -0.11900
C846        C  0.30341507  0.37469806  0.45050103     0.03500
C847        C  0.32227049  0.35759971  0.45722408    -0.12500
C848        C  0.32243221  0.34357796  0.49680262     0.18400
C849        C  0.30468811  0.34808885  0.53038662    -0.09500
C850        C  0.28569769  0.36477986  0.52370401    -0.02500
H851        H  0.33589649  0.35419931  0.43117917     0.04900
C852        C  0.33860751  0.32182115  0.50206600     0.20400
H853        H  0.27134410  0.36701491  0.54980630     0.10100
C854        C  0.37211828  0.33608763  0.51923050    -0.15900
C855        C  0.38733893  0.31556136  0.52619128     0.03100
C856        C  0.36872857  0.27977610  0.51592165    -0.11200
C857        C  0.33496381  0.26576907  0.49894850    -0.01200
C858        C  0.31995005  0.28633992  0.49212619    -0.06400
H859        H  0.38650731  0.36337478  0.52723973     0.06100
H860        H  0.31992254  0.23850668  0.49097279     0.09500
Br861      Br  0.30397218  0.33002354  0.58543123    -0.06100
Br862      Br  0.30284216  0.39094571  0.39474408    -0.03000
Br863      Br  0.43403946  0.33878363  0.54794255    -0.00200
Br864      Br  0.27348284  0.26471158  0.46989835    -0.04500
C865        C  0.37807691  0.19014516  0.86717985    -0.11900
C866        C  0.38783285  0.21991114  0.84243425     0.03500
C867        C  0.38263613  0.21674655  0.79891990    -0.12500
C868        C  0.36833009  0.18422533  0.77948504     0.18400
C869        C  0.35704735  0.15432204  0.80451457    -0.09500
C870        C  0.36156442  0.15741319  0.84812463    -0.02500
H871        H  0.39163570  0.23993674  0.77991870     0.04900
C872        C  0.37077521  0.18286024  0.73326287     0.20400
H873        H  0.35434950  0.13441387  0.86684043     0.10100
C874        C  0.39643785  0.17692031  0.71661881    -0.15900
C875        C  0.40332417  0.18000907  0.67355583     0.03100
C876        C  0.38393693  0.18870481  0.64606048    -0.11200
C877        C  0.35690925  0.19277685  0.66245127    -0.01200
C878        C  0.35057583  0.19041226  0.70584533    -0.06400
H879        H  0.41219521  0.17122886  0.73751389     0.06100
H880        H  0.34213200  0.19992109  0.64180656     0.09500
Br881      Br  0.33749254  0.10906815  0.78016411    -0.06100
Br882      Br  0.40955251  0.26542677  0.86659886    -0.03000
Br883      Br  0.44018507  0.17293778  0.65432637    -0.00200
Br884      Br  0.31522317  0.19907535  0.72649405    -0.04500
C885        C  0.37892842  0.18518895  0.14539308    -0.11900
C886        C  0.39459851  0.17089061  0.17070947     0.03500
C887        C  0.39028130  0.16937421  0.21432808    -0.12500
C888        C  0.37080431  0.18234786  0.23337213     0.18400
C889        C  0.35366264  0.19499175  0.20796474    -0.09500
C890        C  0.35749666  0.19598808  0.16419054    -0.02500
H891        H  0.40359854  0.15962710  0.23363803     0.04900
C892        C  0.37257764  0.18644915  0.27955961     0.20400
H893        H  0.34568092  0.20743135  0.14508167     0.10100
C894        C  0.39532487  0.21929924  0.29628378    -0.15900
C895        C  0.40183040  0.22369960  0.33945519     0.03100
C896        C  0.38517075  0.19486519  0.36686212    -0.11200
C897        C  0.36083697  0.16232034  0.35031615    -0.01200
C898        C  0.35477226  0.15790965  0.30690825    -0.06400
H899        H  0.40908672  0.24141392  0.27542768     0.06100
H900        H  0.34804738  0.13988618  0.37085999     0.09500
Br901      Br  0.32652360  0.21295744  0.23199495    -0.06100
Br902      Br  0.42318461  0.15433535  0.14711902    -0.03000
Br903      Br  0.43404450  0.26965498  0.35915171    -0.00200
Br904      Br  0.32315793  0.11237083  0.28598031    -0.04500
C905        C  0.52571115  0.31383303  0.97806741    -0.11900
C906        C  0.55713966  0.31727820  0.96258274     0.03500
C907        C  0.58923587  0.34599432  0.97432914    -0.12500
C908        C  0.59072043  0.37158913  0.00110717     0.18400
C909        C  0.55961079  0.36959906  0.01390129    -0.09500
C910        C  0.52769776  0.34112398  0.00244734    -0.02500
H911        H  0.61320395  0.34852269  0.96233702     0.04900
C912        C  0.62454299  0.40298538  0.01000050     0.20400
H913        H  0.50428904  0.33996911  0.01419602     0.10100
C914        C  0.63927802  0.42766337  0.97809991    -0.15900
C915        C  0.66930470  0.45940509  0.98509758     0.03100
C916        C  0.68566889  0.46716948  0.02512954    -0.11200
C917        C  0.67164141  0.44177236  0.05688057    -0.01200
C918        C  0.64092988  0.40987600  0.04966225    -0.06400
H919        H  0.62688174  0.42236122  0.94752284     0.06100
H920        H  0.68417545  0.44691711  0.08731657     0.09500
Br921      Br  0.55938142  0.40562379  0.04636362    -0.06100
Br922      Br  0.55839612  0.28451253  0.92488525    -0.03000
Br923      Br  0.68688971  0.48975142  0.93700638    -0.00200
Br924      Br  0.62227398  0.37640174  0.09433026    -0.04500
C925        C  0.52657779  0.21717611  0.04379976    -0.11900
C926        C  0.52823390  0.18669763  0.04900956     0.03500
C927        C  0.55858762  0.18651525  0.03809172    -0.12500
C928        C  0.58795113  0.21663829  0.02273154     0.18400
C929        C  0.58733962  0.24783451  0.02115824    -0.09500
C930        C  0.55686344  0.24796820  0.03188147    -0.02500
H931        H  0.55899629  0.16252357  0.04061300     0.04900
C932        C  0.61897446  0.21493985  0.00920128     0.20400
H933        H  0.55607260  0.27163735  0.02775418     0.10100
C934        C  0.63062849  0.22212301  0.96717193    -0.15900
C935        C  0.66012031  0.22072514  0.95413069     0.03100
C936        C  0.67736933  0.21061171  0.98297744    -0.11200
C937        C  0.66518989  0.20299897  0.02464009    -0.01200
C938        C  0.63688550  0.20570159  0.03800691    -0.06400
H939        H  0.61694168  0.22914952  0.94461851     0.06100
H940        H  0.67879350  0.19628907  0.04771653     0.09500
Br941      Br  0.62720062  0.29060658  0.00366112    -0.06100
Br942      Br  0.48921485  0.14448669  0.06980808    -0.03000
Br943      Br  0.67541430  0.23206228  0.89701968    -0.00200
Br944      Br  0.62555228  0.19910748  0.09679600    -0.04500
C945        C  0.37340280  0.08852995  0.99319921    -0.11900
C946        C  0.38262034  0.07004808  0.96489063     0.03500
C947        C  0.36735143  0.03388333  0.96911664    -0.12500
C948        C  0.34281112  0.01556537  0.00083642     0.18400
C949        C  0.33388810  0.03380172  0.02907550    -0.09500
C950        C  0.34929878  0.06968030  0.02544009    -0.02500
H951        H  0.37386168  0.01979365  0.94678873     0.04900
C952        C  0.32382617  0.97719550  0.00180682     0.20400
H953        H  0.34148302  0.08268807  0.04777588     0.10100
C954        C  0.33071269  0.95948520  0.03349092    -0.15900
C955        C  0.31006300  0.92325145  0.03801021     0.03100
C956        C  0.28180282  0.90408191  0.01023395    -0.11200
C957        C  0.27589573  0.92236752  0.97796200    -0.01200
C958        C  0.29627738  0.95828355  0.97383313    -0.06400
H959        H  0.35169720  0.97408019  0.05550958     0.06100
H960        H  0.25470391  0.90887767  0.95587805     0.09500
Br961      Br  0.29874051  0.01052024  0.07139916    -0.06100
Br962      Br  0.41422223  0.09156006  0.91868600    -0.03000
Br963      Br  0.32151505  0.90246962  0.08352658    -0.00200
Br964      Br  0.28390385  0.98062061  0.93105427    -0.04500
C965        C  0.36492897  0.27620844  0.01477809    -0.11900
C966        C  0.37310881  0.30485039  0.04114460     0.03500
C967        C  0.35609585  0.32380699  0.03525060    -0.12500
C968        C  0.33126861  0.31502910  0.00336975     0.18400
C969        C  0.32373853  0.28733559  0.97653522    -0.09500
C970        C  0.34041748  0.26834017  0.98227776    -0.02500
H971        H  0.36191397  0.34524503  0.05596976     0.04900
C972        C  0.31215151  0.33386644  0.99925642     0.20400
H973        H  0.33379616  0.24703345  0.96101058     0.10100
C974        C  0.32511202  0.36299858  0.97291203    -0.15900
C975        C  0.30614869  0.37984544  0.96589460     0.03100
C976        C  0.27328254  0.36726953  0.98554734    -0.11200
C977        C  0.26087430  0.33808922  0.01237517    -0.01200
C978        C  0.27989942  0.32151477  0.01922928    -0.06400
H979        H  0.34994743  0.37239196  0.95729461     0.06100
H980        H  0.23592558  0.32761676  0.02804157     0.09500
Br981      Br  0.29027588  0.27410025  0.93195029    -0.06100
Br982      Br  0.40633213  0.31948212  0.08616901    -0.03000
Br983      Br  0.32727829  0.41965356  0.92941361    -0.00200
Br984      Br  0.26045334  0.28153296  0.05546722    -0.04500
loop_ 
_geom_bond_atom_site_label_1 
_geom_bond_atom_site_label_2 
_geom_bond_distance 
_geom_bond_site_symmetry_2 
_ccdc_geom_bond_type 
Fe1          O17   2.032   1_554  S
Fe1           O7   2.108   1_554  S
Fe1          O14   2.110       .  S
Fe1           O6   2.031       .  S
Fe1          O12   1.921       .  S
Fe2           O5   2.027   1_554  S
Fe2           O9   2.103       .  S
Fe2          O13   2.038       .  S
Fe2          O18   2.126       .  S
Fe2          O12   1.924       .  S
Fe3          O21   2.126       .  S
Fe3           O8   2.030   1_556  S
Fe3          O15   2.045       .  S
Fe3           O4   2.112       .  S
Fe3          O12   1.931   1_556  S
O4           C11   1.277       .  A
O5           C19   1.259       .  A
O6           C11   1.266   1_554  A
O7           C10   1.279       .  A
O8           C20   1.264       .  A
O9           C22   1.275       .  A
C10          O15   1.269       .  A
C10         C865   1.471       .  S
C11         C945   1.495       .  S
O13          C16   1.268       .  A
O14          C16   1.279       .  A
C16         C885   1.472       .  S
O17          C22   1.266   1_556  A
O18          C20   1.281       .  A
C19          O21   1.277       .  A
C19         C905   1.492       .  S
C20         C925   1.475       .  S
C22         C965   1.492       .  S
Fe23         O39   2.040       .  S
Fe23         O29   2.117       .  S
Fe23         O36   2.115       .  S
Fe23         O28   2.051       .  S
Fe23         O34   1.921       .  S
Fe24         O27   2.033       .  S
Fe24         O31   2.108       .  S
Fe24         O35   2.039       .  S
Fe24         O40   2.140       .  S
Fe24         O34   1.939       .  S
Fe25         O43   2.137       .  S
Fe25         O30   2.025       .  S
Fe25         O37   2.034       .  S
Fe25         O26   2.100       .  S
Fe25         O34   1.922       .  S
O26          C33   1.274       .  A
O27          C41   1.262       .  A
O28          C33   1.268       .  A
O29          C32   1.282       .  A
O30          C42   1.254       .  A
O31          C44   1.278       .  A
C32          O37   1.269       .  A
C32         C876   1.476       .  S
C33         C856   1.494       .  S
O35          C38   1.269       .  A
O36          C38   1.281       .  A
C38         C896   1.479       .  S
O39          C44   1.266       .  A
O40          C42   1.278       .  A
C41          O43   1.281       .  A
C41         C816   1.476       .  S
C42         C785   1.479       .  S
C44         C825   1.484       .  S
Fe45         O61   2.022       .  S
Fe45         O51   2.108       .  S
Fe45         O58   2.107   1_556  S
Fe45         O50   2.025       .  S
Fe45         O56   1.927       .  S
Fe46         O49   2.025   1_554  S
Fe46         O53   2.124       .  S
Fe46         O57   2.057       .  S
Fe46         O62   2.143       .  S
Fe46         O56   1.939   1_554  S
Fe47         O65   2.134       .  S
Fe47         O52   2.026   1_556  S
Fe47         O59   2.039       .  S
Fe47         O48   2.112       .  S
Fe47         O56   1.926       .  S
O48          C55   1.279       .  A
O49          C63   1.264       .  A
O50          C55   1.264       .  A
O51          C54   1.277       .  A
O52          C64   1.257       .  A
O53          C66   1.280       .  A
C54          O59   1.267       .  A
C54         C745   1.480       .  S
C55         C725   1.476       .  S
O57          C60   1.272       .  A
O58          C60   1.279       .  A
C60         C765   1.481       .  S
O61          C66   1.264   1_556  A
O62          C64   1.278       .  A
C63          O65   1.283       .  A
C63         C685   1.485       .  S
C64         C705   1.485       .  S
C66         C956   1.497       .  S
Fe67         O83   2.036       .  S
Fe67         O73   2.119       .  S
Fe67         O80   2.112       .  S
Fe67         O72   2.041       .  S
Fe67         O78   1.923       .  S
Fe68         O71   2.036       .  S
Fe68         O75   2.108       .  S
Fe68         O79   2.038       .  S
Fe68         O84   2.142       .  S
Fe68         O78   1.937       .  S
Fe69         O87   2.143       .  S
Fe69         O74   2.032       .  S
Fe69         O81   2.038       .  S
Fe69         O70   2.118       .  S
Fe69         O78   1.926       .  S
O70          C77   1.278       .  A
O71          C85   1.259       .  A
O72          C77   1.266       .  A
O73          C76   1.281       .  A
O74          C86   1.258       .  A
O75          C88   1.278       .  A
C76          O81   1.270       .  A
C76         C776   1.477       .  S
C77         C676   1.495       .  S
O79          C82   1.270       .  A
O80          C82   1.281       .  A
C82         C756   1.478       .  S
O83          C88   1.263       .  A
O84          C86   1.281       .  A
C85          O87   1.282       .  A
C85         C636   1.483       .  S
C86         C656   1.485       .  S
C88         C836   1.494       .  S
Fe89        O105   2.044       .  S
Fe89         O95   2.122   1_554  S
Fe89        O102   2.110       .  S
Fe89         O94   2.052       .  S
Fe89        O100   1.923       .  S
Fe90         O93   2.042   1_554  S
Fe90         O97   2.102       .  S
Fe90        O101   2.044       .  S
Fe90        O106   2.141       .  S
Fe90        O100   1.939       .  S
Fe91        O109   2.118       .  S
Fe91         O96   2.025   1_556  S
Fe91        O103   2.033       .  S
Fe91         O92   2.097       .  S
Fe91        O100   1.921   1_556  S
O92          C99   1.274       .  A
O93         C107   1.261       .  A
O94          C99   1.269   1_554  A
O95          C98   1.281       .  A
O96         C108   1.257       .  A
O97         C110   1.276       .  A
C98         O103   1.268       .  A
C98         C585   1.480       .  S
C99         C565   1.490   1_556  S
O101        C104   1.271       .  A
O102        C104   1.279       .  A
C104        C605   1.484       .  S
O105        C110   1.268       .  A
O106        C108   1.281       .  A
C107        O109   1.276       .  A
C107        C556   1.476       .  S
C108        C916   1.480       .  S
C110        C736   1.471       .  S
Fe111       O127   2.043       .  S
Fe111       O117   2.109       .  S
Fe111       O124   2.111       .  S
Fe111       O116   2.046       .  S
Fe111       O122   1.929       .  S
Fe112       O115   2.022       .  S
Fe112       O119   2.114       .  S
Fe112       O123   2.045       .  S
Fe112       O128   2.123       .  S
Fe112       O122   1.936       .  S
Fe113       O131   2.138       .  S
Fe113       O118   2.022       .  S
Fe113       O125   2.039       .  S
Fe113       O114   2.110       .  S
Fe113       O122   1.934       .  S
O114        C121   1.277       .  A
O115        C129   1.259       .  A
O116        C121   1.267       .  A
O117        C120   1.279       .  A
O118        C130   1.259       .  A
O119        C132   1.278       .  A
C120        O125   1.269       .  A
C120        C616   1.473       .  S
C121        C525   1.482       .  S
O123        C126   1.268       .  A
O124        C126   1.279       .  A
C126        C596   1.478       .  S
O127        C132   1.267       .  A
O128        C130   1.278       .  A
C129        O131   1.283       .  A
C129        C505   1.495       .  S
C130        C796   1.480       .  S
C132        C665   1.496       .  S
Fe133       O149   2.034   1_554  S
Fe133       O139   2.119   1_554  S
Fe133       O146   2.118       .  S
Fe133       O138   2.030       .  S
Fe133       O144   1.918   1_554  S
Fe134       O137   2.023   1_554  S
Fe134       O141   2.118       .  S
Fe134       O145   2.041       .  S
Fe134       O150   2.154       .  S
Fe134       O144   1.925   1_554  S
Fe135       O153   2.155       .  S
Fe135       O140   2.023   1_556  S
Fe135       O147   2.037       .  S
Fe135       O136   2.111       .  S
Fe135       O144   1.925       .  S
O136        C143   1.276       .  A
O137        C151   1.259       .  A
O138        C143   1.264   1_554  A
O139        C142   1.282       .  A
O140        C152   1.258       .  A
O141        C154   1.280       .  A
C142        O147   1.270       .  A
C142        C476   1.470       .  S
C143        C456   1.490       .  S
O145        C148   1.270       .  A
O146        C148   1.282       .  A
C148        C485   1.481       .  S
O149        C154   1.266   1_556  A
O150        C152   1.283       .  A
C151        O153   1.281       .  A
C151        C425   1.502       .  S
C152        C696   1.492       .  S
C154        C576   1.485       .  S
Fe155       O171   2.055       .  S
Fe155       O161   2.118       .  S
Fe155       O168   2.112       .  S
Fe155       O160   2.040       .  S
Fe155       O166   1.919       .  S
Fe156       O159   2.025       .  S
Fe156       O163   2.102       .  S
Fe156       O167   2.042       .  S
Fe156       O172   2.141       .  S
Fe156       O166   1.922       .  S
Fe157       O175   2.134       .  S
Fe157       O162   2.039       .  S
Fe157       O169   2.040       .  S
Fe157       O158   2.099       .  S
Fe157       O166   1.936       .  S
O158        C165   1.275       .  A
O159        C173   1.257       .  A
O160        C165   1.265       .  A
O161        C164   1.281       .  A
O162        C174   1.260       .  A
O163        C176   1.276       .  A
C164        O169   1.269       .  A
C164        C496   1.477       .  S
C165        C405   1.470       .  S
O167        C170   1.271       .  A
O168        C170   1.281       .  A
C170        C465   1.482       .  S
O171        C176   1.267       .  A
O172        C174   1.281       .  A
C173        O175   1.279       .  A
C173        C396   1.478       .  S
C174        C625   1.480       .  S
C176        C536   1.493       .  S
Fe177       O193   2.039       .  S
Fe177       O183   2.109       .  S
Fe177       O190   2.107   1_556  S
Fe177       O182   2.042   1_556  S
Fe177       O188   1.921       .  S
Fe178       O181   2.030   1_554  S
Fe178       O185   2.094       .  S
Fe178       O189   2.049       .  S
Fe178       O194   2.128       .  S
Fe178       O188   1.923   1_554  S
Fe179       O197   2.128       .  S
Fe179       O184   2.034   1_556  S
Fe179       O191   2.040       .  S
Fe179       O180   2.099       .  S
Fe179       O188   1.933       .  S
O180        C187   1.275       .  A
O181        C195   1.258       .  A
O182        C187   1.267   1_554  A
O183        C186   1.279       .  A
O184        C196   1.262       .  A
O185        C198   1.275       .  A
C186        O191   1.270       .  A
C186        C345   1.483       .  S
C187        C325   1.473       .  S
O189        C192   1.270       .  A
O190        C192   1.278       .  A
C192        C365   1.478       .  S
O193        C198   1.268   1_556  A
O194        C196   1.280       .  A
C195        O197   1.277       .  A
C195        C936   1.479       .  S
C196        C545   1.469       .  S
C198        C445   1.488       .  S
Fe199       O215   2.029       .  S
Fe199       O205   2.110       .  S
Fe199       O212   2.115       .  S
Fe199       O204   2.029       .  S
Fe199       O210   1.928       .  S
Fe200       O203   2.028       .  S
Fe200       O207   2.103       .  S
Fe200       O211   2.040       .  S
Fe200       O216   2.131       .  S
Fe200       O210   1.928       .  S
Fe201       O219   2.138       .  S
Fe201       O206   2.032       .  S
Fe201       O213   2.049       .  S
Fe201       O202   2.111       .  S
Fe201       O210   1.935       .  S
O202        C209   1.279       .  A
O203        C217   1.259       .  A
O204        C209   1.266       .  A
O205        C208   1.278       .  A
O206        C218   1.264       .  A
O207        C220   1.275       .  A
C208        O213   1.271       .  A
C208        C376   1.486       .  S
C209        C305   1.475       .  S
O211        C214   1.270       .  A
O212        C214   1.280       .  A
C214        C356   1.479       .  S
O215        C220   1.263       .  A
O216        C218   1.279       .  A
C217        O219   1.279       .  A
C217        C805   1.481       .  S
C218        C516   1.488       .  S
C220        C416   1.474       .  S
Fe221       O237   2.033       .  S
Fe221       O227   2.115       .  S
Fe221       O234   2.113   1_556  S
Fe221       O226   2.032   1_556  S
Fe221       O232   1.922       .  S
Fe222       O225   2.026   1_554  S
Fe222       O229   2.106       .  S
Fe222       O233   2.043       .  S
Fe222       O238   2.150       .  S
Fe222       O232   1.932   1_554  S
Fe223       O241   2.136       .  S
Fe223       O228   2.031       .  S
Fe223       O235   2.041       .  S
Fe223       O224   2.109       .  S
Fe223       O232   1.925       .  S
O224        C231   1.277       .  A
O225        C239   1.258       .  A
O226        C231   1.266   1_554  A
O227        C230   1.279       .  A
O228        C240   1.259   1_556  A
O229        C242   1.278   1_554  A
C230        O235   1.269       .  A
C230        C265   1.475       .  S
C231        C976   1.492       .  S
O233        C236   1.271       .  A
O234        C236   1.280       .  A
C236        C296   1.476       .  S
O237        C242   1.263       .  A
O238        C240   1.283       .  A
C239        O241   1.280       .  A
C239        C716   1.484       .  S
C240        C436   1.490       .  S
C242        C336   1.486       .  S
Fe243       O259   2.038       .  S
Fe243       O249   2.117       .  S
Fe243       O256   2.118       .  S
Fe243       O248   2.038       .  S
Fe243       O254   1.926       .  S
Fe244       O247   2.028       .  S
Fe244       O251   2.102       .  S
Fe244       O255   2.034       .  S
Fe244       O260   2.123       .  S
Fe244       O254   1.933       .  S
Fe245       O263   2.134       .  S
Fe245       O250   2.023       .  S
Fe245       O257   2.042       .  S
Fe245       O246   2.109       .  S
Fe245       O254   1.935       .  S
O246        C253   1.276       .  A
O247        C261   1.262       .  A
O248        C253   1.265       .  A
O249        C252   1.282       .  A
O250        C262   1.260       .  A
O251        C264   1.275       .  A
C252        O257   1.271       .  A
C252        C285   1.484       .  S
C253        C845   1.485       .  S
O255        C258   1.267       .  A
O256        C258   1.281       .  A
C258        C276   1.477       .  S
O259        C264   1.265       .  A
O260        C262   1.279       .  A
C261        O263   1.279       .  A
C261        C645   1.497       .  S
C262        C385   1.481       .  S
C264        C316   1.479       .  S
C265        C266   1.409       .  A
C265        C270   1.405       .  A
C266        C267   1.398       .  A
C266       Br282   1.920       .  S
C267        C268   1.402       .  A
C267        H271   1.084       .  S
C268        C272   1.481       .  S
C268        C269   1.409       .  A
C269        C270   1.404       .  A
C269       Br281   1.917       .  S
C270        H273   1.083       .  S
C272        C274   1.401       .  A
C272        C278   1.409       .  A
C274        C275   1.398       .  A
C274        H279   1.084       .  S
C275        C276   1.412       .  A
C275       Br283   1.923       .  S
C276        C277   1.404       .  A
C277        C278   1.404       .  A
C277        H280   1.083       .  S
C278       Br284   1.916       .  S
C285        C286   1.412       .  A
C285        C290   1.405       .  A
C286        C287   1.407       .  A
C286       Br302   1.917       .  S
C287        C288   1.405       .  A
C287        H291   1.083       .  S
C288        C292   1.482       .  S
C288        C289   1.407       .  A
C289        C290   1.396       .  A
C289       Br301   1.920       .  S
C290        H293   1.084       .  S
C292        C294   1.401       .  A
C292        C298   1.411       .  A
C294        C295   1.398       .  A
C294        H299   1.083       .  S
C295        C296   1.411       .  A
C295       Br303   1.920       .  S
C296        C297   1.403       .  A
C297        C298   1.404       .  A
C297        H300   1.083       .  S
C298       Br304   1.917       .  S
C305        C306   1.410       .  A
C305        C310   1.405       .  A
C306        C307   1.402       .  A
C306       Br322   1.918       .  S
C307        C308   1.403       .  A
C307        H311   1.083       .  S
C308        C312   1.475   1_655  S
C308        C309   1.406       .  A
C309        C310   1.396       .  A
C309       Br321   1.920       .  S
C310        H313   1.084       .  S
C312        C314   1.404       .  A
C312        C318   1.404       .  A
C314        C315   1.402       .  A
C314        H319   1.083       .  S
C315        C316   1.411       .  A
C315       Br323   1.919       .  S
C316        C317   1.406       .  A
C317        C318   1.396       .  A
C317        H320   1.082       .  S
C318       Br324   1.919       .  S
C325        C326   1.411   1_556  A
C325        C330   1.404       .  A
C326        C327   1.396       .  A
C326       Br342   1.922       .  S
C327        C328   1.401   1_554  A
C327        H331   1.084       .  S
C328        C332   1.475   1_655  S
C328        C329   1.408       .  A
C329        C330   1.399       .  A
C329       Br341   1.917       .  S
C330        H333   1.084       .  S
C332        C334   1.398       .  A
C332        C338   1.404       .  A
C334        C335   1.395       .  A
C334        H339   1.084       .  S
C335        C336   1.421       .  A
C335       Br343   1.926       .  S
C336        C337   1.408       .  A
C337        C338   1.401       .  A
C337        H340   1.083   1_556  S
C338       Br344   1.916   1_556  S
C345        C346   1.416       .  A
C345        C350   1.406       .  A
C346        C347   1.404       .  A
C346       Br362   1.920       .  S
C347        C348   1.402       .  A
C347        H351   1.083       .  S
C348        C352   1.477       .  S
C348        C349   1.406       .  A
C349        C350   1.395       .  A
C349       Br361   1.920       .  S
C350        H353   1.083       .  S
C352        C354   1.402       .  A
C352        C358   1.406       .  A
C354        C355   1.403       .  A
C354        H359   1.083       .  S
C355        C356   1.413       .  A
C355       Br363   1.918       .  S
C356        C357   1.405       .  A
C357        C358   1.397       .  A
C357        H360   1.083       .  S
C358       Br364   1.919       .  S
C365        C366   1.414       .  A
C365        C370   1.402       .  A
C366        C367   1.405       .  A
C366       Br382   1.920       .  S
C367        C368   1.402       .  A
C367        H371   1.083       .  S
C368        C372   1.480       .  S
C368        C369   1.408       .  A
C369        C370   1.397       .  A
C369       Br381   1.919       .  S
C370        H373   1.083       .  S
C372        C374   1.402       .  A
C372        C378   1.406       .  A
C374        C375   1.406       .  A
C374        H379   1.083       .  S
C375        C376   1.417       .  A
C375       Br383   1.920       .  S
C376        C377   1.406       .  A
C377        C378   1.396       .  A
C377        H380   1.083       .  S
C378       Br384   1.920       .  S
C385        C386   1.416       .  A
C385        C390   1.409       .  A
C386        C387   1.394       .  A
C386       Br402   1.924       .  S
C387        C388   1.399       .  A
C387        H391   1.084       .  S
C388        C392   1.475       .  S
C388        C389   1.405       .  A
C389        C390   1.403       .  A
C389       Br401   1.915       .  S
C390        H393   1.083       .  S
C392        C394   1.409       .  A
C392        C398   1.400       .  A
C394        C395   1.408       .  A
C394        H399   1.083       .  S
C395        C396   1.408       .  A
C395       Br403   1.916       .  S
C396        C397   1.408       .  A
C397        C398   1.388       .  A
C397        H400   1.084       .  S
C398       Br404   1.921       .  S
C405        C406   1.412       .  A
C405        C410   1.400       .  A
C406        C407   1.397       .  A
C406       Br422   1.918       .  S
C407        C408   1.399       .  A
C407        H411   1.084       .  S
C408        C412   1.471   1_565  S
C408        C409   1.409       .  A
C409        C410   1.398       .  A
C409       Br421   1.918       .  S
C410        H413   1.082       .  S
C412        C414   1.397       .  A
C412        C418   1.407       .  A
C414        C415   1.391       .  A
C414        H419   1.084       .  S
C415        C416   1.413       .  A
C415       Br423   1.923       .  S
C416        C417   1.406       .  A
C417        C418   1.403       .  A
C417        H420   1.083       .  S
C418       Br424   1.917       .  S
C425        C426   1.418       .  A
C425        C430   1.413       .  A
C426        C427   1.411       .  A
C426       Br442   1.916       .  S
C427        C428   1.406       .  A
C427        H431   1.083       .  S
C428        C432   1.484       .  S
C428        C429   1.401       .  A
C429        C430   1.394       .  A
C429       Br441   1.920   1_556  S
C430        H433   1.081       .  S
C432        C434   1.394       .  A
C432        C438   1.412   1_556  A
C434        C435   1.394       .  A
C434        H439   1.084       .  S
C435        C436   1.422   1_556  A
C435       Br443   1.925       .  S
C436        C437   1.406       .  A
C437        C438   1.411       .  A
C437        H440   1.083       .  S
C438       Br444   1.916       .  S
C445        C446   1.416       .  A
C445        C450   1.410   1_554  A
C446        C447   1.399       .  A
C446       Br462   1.922       .  S
C447        C448   1.403   1_554  A
C447        H451   1.084       .  S
C448        C452   1.481   1_545  S
C448        C449   1.406       .  A
C449        C450   1.395       .  A
C449       Br461   1.921       .  S
C450        H453   1.083       .  S
C452        C454   1.404       .  A
C452        C458   1.406   1_556  A
C454        C455   1.403       .  A
C454        H459   1.083       .  S
C455        C456   1.416       .  A
C455       Br463   1.920       .  S
C456        C457   1.410   1_556  A
C457        C458   1.393       .  A
C457        H460   1.083       .  S
C458       Br464   1.923       .  S
C465        C466   1.414       .  A
C465        C470   1.408       .  A
C466        C467   1.397       .  A
C466       Br482   1.922       .  S
C467        C468   1.400       .  A
C467        H471   1.084       .  S
C468        C472   1.478       .  S
C468        C469   1.406       .  A
C469        C470   1.403       .  A
C469       Br481   1.917       .  S
C470        H473   1.083       .  S
C472        C474   1.403       .  A
C472        C478   1.408       .  A
C474        C475   1.399       .  A
C474        H479   1.084       .  S
C475        C476   1.406       .  A
C475       Br483   1.919       .  S
C476        C477   1.404       .  A
C477        C478   1.402       .  A
C477        H480   1.084       .  S
C478       Br484   1.918       .  S
C485        C486   1.412       .  A
C485        C490   1.405       .  A
C486        C487   1.404       .  A
C486       Br502   1.919       .  S
C487        C488   1.404       .  A
C487        H491   1.083       .  S
C488        C492   1.482       .  S
C488        C489   1.408       .  A
C489        C490   1.398       .  A
C489       Br501   1.920       .  S
C490        H493   1.084       .  S
C492        C494   1.405       .  A
C492        C498   1.408       .  A
C494        C495   1.404       .  A
C494        H499   1.083       .  S
C495        C496   1.411       .  A
C495       Br503   1.917       .  S
C496        C497   1.403       .  A
C497        C498   1.398       .  A
C497        H500   1.083       .  S
C498       Br504   1.919       .  S
C505        C506   1.425       .  A
C505        C510   1.409       .  A
C506        C507   1.397       .  A
C506       Br522   1.926       .  S
C507        C508   1.395       .  A
C507        H511   1.084       .  S
C508        C512   1.483       .  S
C508        C509   1.407       .  A
C509        C510   1.405       .  A
C509       Br521   1.909       .  S
C510        H513   1.083       .  S
C512        C514   1.408       .  A
C512        C518   1.402       .  A
C514        C515   1.409       .  A
C514        H519   1.083       .  S
C515        C516   1.411       .  A
C515       Br523   1.918       .  S
C516        C517   1.410       .  A
C517        C518   1.395       .  A
C517        H520   1.084       .  S
C518       Br524   1.919       .  S
C525        C526   1.413       .  A
C525        C530   1.405       .  A
C526        C527   1.400       .  A
C526       Br542   1.922       .  S
C527        C528   1.401       .  A
C527        H531   1.084       .  S
C528        C532   1.484       .  S
C528        C529   1.409       .  A
C529        C530   1.404       .  A
C529       Br541   1.917       .  S
C530        H533   1.083       .  S
C532        C534   1.401       .  A
C532        C538   1.406       .  A
C534        C535   1.401       .  A
C534        H539   1.084       .  S
C535        C536   1.419       .  A
C535       Br543   1.922       .  S
C536        C537   1.410       .  A
C537        C538   1.403       .  A
C537        H540   1.083       .  S
C538       Br544   1.917       .  S
C545        C546   1.406       .  A
C545        C550   1.404       .  A
C546        C547   1.402       .  A
C546       Br562   1.917       .  S
C547        C548   1.407       .  A
C547        H551   1.083       .  S
C548        C552   1.483   1_554  S
C548        C549   1.409   1_554  A
C549        C550   1.396   1_556  A
C549       Br561   1.922       .  S
C550        H553   1.081   1_554  S
C552        C554   1.407       .  A
C552        C558   1.407   1_556  A
C554        C555   1.404       .  A
C554        H559   1.081       .  S
C555        C556   1.409       .  A
C555       Br563   1.918       .  S
C556        C557   1.404       .  A
C557        C558   1.395   1_556  A
C557        H560   1.067       .  S
C558       Br564   1.919       .  S
C565        C566   1.418   1_554  A
C565        C570   1.408       .  A
C566        C567   1.405       .  A
C566       Br582   1.921       .  S
C567        C568   1.403   1_556  A
C567        H571   1.083       .  S
C568        C572   1.483       .  S
C568        C569   1.406       .  A
C569        C570   1.397       .  A
C569       Br581   1.919       .  S
C570        H573   1.083       .  S
C572        C574   1.405       .  A
C572        C578   1.407       .  A
C574        C575   1.407       .  A
C574        H579   1.083       .  S
C575        C576   1.413       .  A
C575       Br583   1.916       .  S
C576        C577   1.406       .  A
C577        C578   1.395       .  A
C577        H580   1.084       .  S
C578       Br584   1.921       .  S
C585        C586   1.413       .  A
C585        C590   1.404       .  A
C586        C587   1.406       .  A
C586       Br602   1.919       .  S
C587        C588   1.404       .  A
C587        H591   1.083       .  S
C588        C592   1.481       .  S
C588        C589   1.407       .  A
C589        C590   1.396       .  A
C589       Br601   1.920       .  S
C590        H593   1.083       .  S
C592        C594   1.403       .  A
C592        C598   1.409       .  A
C594        C595   1.402       .  A
C594        H599   1.083       .  S
C595        C596   1.410       .  A
C595       Br603   1.918       .  S
C596        C597   1.405       .  A
C597        C598   1.400       .  A
C597        H600   1.084       .  S
C598       Br604   1.920       .  S
C605        C606   1.413       .  A
C605        C610   1.406       .  A
C606        C607   1.406       .  A
C606       Br622   1.919       .  S
C607        C608   1.404       .  A
C607        H611   1.083       .  S
C608        C612   1.479       .  S
C608        C609   1.406       .  A
C609        C610   1.395       .  A
C609       Br621   1.921       .  S
C610        H613   1.084       .  S
C612        C614   1.400       .  A
C612        C618   1.410       .  A
C614        C615   1.396       .  A
C614        H619   1.084       .  S
C615        C616   1.410       .  A
C615       Br623   1.921       .  S
C616        C617   1.403       .  A
C617        C618   1.404       .  A
C617        H620   1.083       .  S
C618       Br624   1.917       .  S
C625        C626   1.410       .  A
C625        C630   1.403       .  A
C626        C627   1.407       .  A
C626       Br642   1.917       .  S
C627        C628   1.408       .  A
C627        H631   1.083       .  S
C628        C632   1.490       .  S
C628        C629   1.409       .  A
C629        C630   1.397       .  A
C629       Br641   1.923       .  S
C630        H633   1.078       .  S
C632        C634   1.407       .  A
C632        C638   1.407       .  A
C634        C635   1.407       .  A
C634        H639   1.085       .  S
C635        C636   1.413       .  A
C635       Br643   1.918       .  S
C636        C637   1.401       .  A
C637        C638   1.396       .  A
C637        H640   1.086       .  S
C638       Br644   1.917       .  S
C645        C646   1.419       .  A
C645        C650   1.412       .  A
C646        C647   1.408       .  A
C646       Br662   1.920       .  S
C647        C648   1.404       .  A
C647        H651   1.083       .  S
C648        C652   1.479       .  S
C648        C649   1.402       .  A
C649        C650   1.394       .  A
C649       Br661   1.921       .  S
C650        H653   1.083       .  S
C652        C654   1.393       .  A
C652        C658   1.411       .  A
C654        C655   1.390       .  A
C654        H659   1.084       .  S
C655        C656   1.420       .  A
C655       Br663   1.924       .  S
C656        C657   1.407       .  A
C657        C658   1.410       .  A
C657        H660   1.083       .  S
C658       Br664   1.917       .  S
C665        C666   1.417       .  A
C665        C670   1.411       .  A
C666        C667   1.408       .  A
C666       Br682   1.919       .  S
C667        C668   1.405       .  A
C667        H671   1.084       .  S
C668        C672   1.485   1_655  S
C668        C669   1.404       .  A
C669        C670   1.398       .  A
C669       Br681   1.919       .  S
C670        H673   1.084       .  S
C672        C674   1.405       .  A
C672        C678   1.405       .  A
C674        C675   1.409       .  A
C674        H679   1.083       .  S
C675        C676   1.416       .  A
C675       Br683   1.918       .  S
C676        C677   1.410       .  A
C677        C678   1.397       .  A
C677        H680   1.083       .  S
C678       Br684   1.920       .  S
C685        C686   1.416       .  A
C685        C690   1.407       .  A
C686        C687   1.398       .  A
C686       Br702   1.924       .  S
C687        C688   1.401       .  A
C687        H691   1.084       .  S
C688        C692   1.486       .  S
C688        C689   1.407       .  A
C689        C690   1.403       .  A
C689       Br701   1.911       .  S
C690        H693   1.083       .  S
C692        C694   1.410   1_556  A
C692        C698   1.402       .  A
C694        C695   1.410       .  A
C694        H699   1.083       .  S
C695        C696   1.411       .  A
C695       Br703   1.916       .  S
C696        C697   1.413   1_554  A
C697        C698   1.393       .  A
C697        H700   1.083       .  S
C698       Br704   1.921       .  S
C705        C706   1.407       .  A
C705        C710   1.407   1_554  A
C706        C707   1.412       .  A
C706       Br722   1.914       .  S
C707        C708   1.411   1_554  A
C707        H711   1.083       .  S
C708        C712   1.487       .  S
C708        C709   1.404       .  A
C709        C710   1.394       .  A
C709       Br721   1.920       .  S
C710        H713   1.083       .  S
C712        C714   1.403       .  A
C712        C718   1.407       .  A
C714        C715   1.400       .  A
C714        H719   1.084       .  S
C715        C716   1.415       .  A
C715       Br723   1.922       .  S
C716        C717   1.407       .  A
C717        C718   1.402       .  A
C717        H720   1.081       .  S
C718       Br724   1.911       .  S
C725        C726   1.414       .  A
C725        C730   1.406       .  A
C726        C727   1.393       .  A
C726       Br742   1.922       .  S
C727        C728   1.398   1_556  A
C727        H731   1.084       .  S
C728        C732   1.474   1_455  S
C728        C729   1.407   1_554  A
C729        C730   1.404       .  A
C729       Br741   1.916   1_556  S
C730        H733   1.084       .  S
C732        C734   1.399   1_554  A
C732        C738   1.410       .  A
C734        C735   1.395       .  A
C734        H739   1.084       .  S
C735        C736   1.409   1_556  A
C735       Br743   1.921       .  S
C736        C737   1.403       .  A
C737        C738   1.403       .  A
C737        H740   1.083       .  S
C738       Br744   1.918       .  S
C745        C746   1.413       .  A
C745        C750   1.406       .  A
C746        C747   1.403       .  A
C746       Br762   1.916       .  S
C747        C748   1.402       .  A
C747        H751   1.083       .  S
C748        C752   1.477       .  S
C748        C749   1.406       .  A
C749        C750   1.396       .  A
C749       Br761   1.920       .  S
C750        H753   1.084       .  S
C752        C754   1.402       .  A
C752        C758   1.407       .  A
C754        C755   1.404       .  A
C754        H759   1.083       .  S
C755        C756   1.413       .  A
C755       Br763   1.920       .  S
C756        C757   1.404       .  A
C757        C758   1.396       .  A
C757        H760   1.084       .  S
C758       Br764   1.921       .  S
C765        C766   1.411       .  A
C765        C770   1.406       .  A
C766        C767   1.401       .  A
C766       Br782   1.920       .  S
C767        C768   1.404       .  A
C767        H771   1.084       .  S
C768        C772   1.482       .  S
C768        C769   1.407       .  A
C769        C770   1.402       .  A
C769       Br781   1.917       .  S
C770        H773   1.084       .  S
C772        C774   1.401       .  A
C772        C778   1.409       .  A
C774        C775   1.397       .  A
C774        H779   1.084       .  S
C775        C776   1.410       .  A
C775       Br783   1.921       .  S
C776        C777   1.406       .  A
C777        C778   1.406       .  A
C777        H780   1.083       .  S
C778       Br784   1.917       .  S
C785        C786   1.406       .  A
C785        C790   1.409       .  A
C786        C787   1.408       .  A
C786       Br802   1.915       .  S
C787        C788   1.410       .  A
C787        H791   1.083       .  S
C788        C792   1.477       .  S
C788        C789   1.400       .  A
C789        C790   1.390       .  A
C789       Br801   1.920       .  S
C790        H793   1.083       .  S
C792        C794   1.399       .  A
C792        C798   1.407       .  A
C794        C795   1.394       .  A
C794        H799   1.084       .  S
C795        C796   1.415       .  A
C795       Br803   1.924       .  S
C796        C797   1.408       .  A
C797        C798   1.403       .  A
C797        H800   1.084       .  S
C798       Br804   1.914       .  S
C805        C806   1.406       .  A
C805        C810   1.406       .  A
C806        C807   1.411       .  A
C806       Br822   1.915       .  S
C807        C808   1.413       .  A
C807        H811   1.083       .  S
C808        C812   1.489       .  S
C808        C809   1.405       .  A
C809        C810   1.391       .  A
C809       Br821   1.921       .  S
C810        H813   1.083       .  S
C812        C814   1.407       .  A
C812        C818   1.407       .  A
C814        C815   1.401       .  A
C814        H819   1.083       .  S
C815        C816   1.407       .  A
C815       Br823   1.917       .  S
C816        C817   1.403       .  A
C817        C818   1.399       .  A
C817        H820   1.079       .  S
C818       Br824   1.910       .  S
C825        C826   1.415       .  A
C825        C830   1.404       .  A
C826        C827   1.397       .  A
C826       Br842   1.922       .  S
C827        C828   1.401       .  A
C827        H831   1.083       .  S
C828        C832   1.487   1_545  S
C828        C829   1.413       .  A
C829        C830   1.403       .  A
C829       Br841   1.919       .  S
C830        H833   1.083       .  S
C832        C834   1.399       .  A
C832        C838   1.410       .  A
C834        C835   1.396       .  A
C834        H839   1.083       .  S
C835        C836   1.423       .  A
C835       Br843   1.926       .  S
C836        C837   1.409       .  A
C837        C838   1.403       .  A
C837        H840   1.083       .  S
C838       Br844   1.919       .  S
C845        C846   1.413       .  A
C845        C850   1.407       .  A
C846        C847   1.406       .  A
C846       Br862   1.919       .  S
C847        C848   1.406       .  A
C847        H851   1.083       .  S
C848        C852   1.482       .  S
C848        C849   1.404       .  A
C849        C850   1.396       .  A
C849       Br861   1.919       .  S
C850        H853   1.084       .  S
C852        C854   1.402       .  A
C852        C858   1.405       .  A
C854        C855   1.405       .  A
C854        H859   1.083       .  S
C855        C856   1.419       .  A
C855       Br863   1.921       .  S
C856        C857   1.410       .  A
C857        C858   1.398       .  A
C857        H860   1.083       .  S
C858       Br864   1.920       .  S
C865        C866   1.408       .  A
C865        C870   1.402       .  A
C866        C867   1.400       .  A
C866       Br882   1.919       .  S
C867        C868   1.404       .  A
C867        H871   1.084       .  S
C868        C872   1.479       .  S
C868        C869   1.408       .  A
C869        C870   1.400       .  A
C869       Br881   1.918       .  S
C870        H873   1.084       .  S
C872        C874   1.401       .  A
C872        C878   1.408       .  A
C874        C875   1.396       .  A
C874        H879   1.084       .  S
C875        C876   1.412       .  A
C875       Br883   1.921       .  S
C876        C877   1.405       .  A
C877        C878   1.403       .  A
C877        H880   1.083       .  S
C878       Br884   1.917       .  S
C885        C886   1.409       .  A
C885        C890   1.403       .  A
C886        C887   1.398       .  A
C886       Br902   1.920       .  S
C887        C888   1.402       .  A
C887        H891   1.084       .  S
C888        C892   1.479       .  S
C888        C889   1.408       .  A
C889        C890   1.402       .  A
C889       Br901   1.917       .  S
C890        H893   1.084       .  S
C892        C894   1.401       .  A
C892        C898   1.407       .  A
C894        C895   1.398       .  A
C894        H899   1.084       .  S
C895        C896   1.412       .  A
C895       Br903   1.922       .  S
C896        C897   1.406       .  A
C897        C898   1.403       .  A
C897        H900   1.083       .  S
C898       Br904   1.917       .  S
C905        C906   1.416       .  A
C905        C910   1.413   1_556  A
C906        C907   1.404       .  A
C906       Br922   1.920       .  S
C907        C908   1.404   1_556  A
C907        H911   1.083       .  S
C908        C912   1.476       .  S
C908        C909   1.402       .  A
C909        C910   1.393       .  A
C909       Br921   1.921       .  S
C910        H913   1.083       .  S
C912        C914   1.391   1_554  A
C912        C918   1.412       .  A
C914        C915   1.389       .  A
C914        H919   1.084       .  S
C915        C916   1.421   1_556  A
C915       Br923   1.924       .  S
C916        C917   1.404       .  A
C917        C918   1.408       .  A
C917        H920   1.083       .  S
C918       Br924   1.917       .  S
C925        C926   1.409       .  A
C925        C930   1.404       .  A
C926        C927   1.398       .  A
C926       Br942   1.920       .  S
C927        C928   1.405       .  A
C927        H931   1.084       .  S
C928        C932   1.484       .  S
C928        C929   1.408       .  A
C929        C930   1.401       .  A
C929       Br941   1.915       .  S
C930        H933   1.083       .  S
C932        C934   1.411   1_554  A
C932        C938   1.404       .  A
C934        C935   1.407       .  A
C934        H939   1.083       .  S
C935        C936   1.407       .  A
C935       Br943   1.916       .  S
C936        C937   1.407   1_556  A
C937        C938   1.391       .  A
C937        H940   1.084       .  S
C938       Br944   1.921       .  S
C945        C946   1.419       .  A
C945        C950   1.412   1_556  A
C946        C947   1.406       .  A
C946       Br962   1.920       .  S
C947        C948   1.404   1_556  A
C947        H951   1.084       .  S
C948        C952   1.479   1_545  S
C948        C949   1.402       .  A
C949        C950   1.392       .  A
C949       Br961   1.920       .  S
C950        H953   1.083       .  S
C952        C954   1.405       .  A
C952        C958   1.401   1_554  A
C954        C955   1.406       .  A
C954        H959   1.083       .  S
C955        C956   1.417       .  A
C955       Br963   1.919       .  S
C956        C957   1.414   1_554  A
C957        C958   1.393       .  A
C957        H960   1.083       .  S
C958       Br964   1.921       .  S
C965        C966   1.419       .  A
C965        C970   1.412   1_554  A
C966        C967   1.404       .  A
C966       Br982   1.920       .  S
C967        C968   1.401       .  A
C967        H971   1.083       .  S
C968        C972   1.473   1_554  S
C968        C969   1.401   1_554  A
C969        C970   1.392       .  A
C969       Br981   1.920       .  S
C970        H973   1.083       .  S
C972        C974   1.400       .  A
C972        C978   1.402   1_556  A
C974        C975   1.402       .  A
C974        H979   1.083       .  S
C975        C976   1.418       .  A
C975       Br983   1.920       .  S
C976        C977   1.413   1_556  A
C977        C978   1.394       .  A
C977        H980   1.083       .  S
C978       Br984   1.921       .  S
