geometry optimzed in LAMMPS
_audit_creation_date              2020-12-01 
_audit_creation_method            'lammps2cif' 
_symmetry_space_group_name_H-M    'P1' 
_symmetry_Int_Tables_number       1 
_symmetry_cell_setting            triclinic 
loop_ 
_symmetry_equiv_pos_as_xyz 
  x,y,z 
_cell_length_a                    44.86810521 
_cell_length_b                    44.347025999608135 
_cell_length_c                    36.55637129156037 
_cell_angle_alpha                 90.85337932534155 
_cell_angle_beta                  89.72916561435702 
_cell_angle_gamma                 125.31808141785449 
loop_ 
_atom_site_label 
_atom_site_type_symbol 
_atom_site_fract_x 
_atom_site_fract_y 
_atom_site_fract_z 
_atom_site_charge 
C1          C  0.89588989  0.46616381  0.99725262     0.02900
C2          C  0.88208865  0.46604114  0.03198729    -0.13300
C3          C  0.84595487  0.45450620  0.03584474     0.00400
C4          C  0.82488698  0.44128162  0.50378698    -0.11800
C5          C  0.83849292  0.44299809  0.46877049     0.02900
C6          C  0.87516877  0.45577074  0.46466975    -0.11200
H7          H  0.89959806  0.47575410  0.05595101     0.08500
H8          H  0.79698297  0.43276851  0.50685925     0.06000
H9          H  0.88592152  0.45790410  0.43749679     0.05800
C10         C  0.46450724  0.18810180  0.99661066     0.02900
C11         C  0.47327270  0.20726550  0.03026401    -0.13300
C12         C  0.49482532  0.24610843  0.03115405     0.00400
C13         C  0.50791796  0.26555495  0.99833984    -0.11800
C14         C  0.49354216  0.24873418  0.46774456     0.02900
C15         C  0.47116242  0.21006125  0.46758106    -0.11200
H16         H  0.46424417  0.19214809  0.05562590     0.08500
H17         H  0.52628034  0.29547249  0.99920380     0.06000
H18         H  0.46459137  0.19510766  0.44177876     0.05800
C19         C  0.67048598  0.64953451  0.00181841     0.02900
C20         C  0.67279895  0.63699168  0.46753890    -0.13300
C21         C  0.69186848  0.62060483  0.46437519     0.00400
C22         C  0.70720388  0.61552668  0.99848331    -0.11800
C23         C  0.69776546  0.62260507  0.03237381     0.02900
C24         C  0.67994021  0.63999324  0.03398172    -0.11200
H25         H  0.66382889  0.64318892  0.44311553     0.08500
H26         H  0.71898253  0.59998491  0.99752514     0.06000
H27         H  0.67155903  0.64417465  0.06033791     0.05800
O28         O  0.59984566  0.38788163  0.21797022    -0.82000
C29         C  0.72597241  0.44519049  0.30242682     0.97300
O30         O  0.69457644  0.41543035  0.29963706    -0.71200
O31         O  0.62435648  0.37224132  0.28653537    -0.74800
Al32       Al  0.66654099  0.39684130  0.25603990     1.49000
C33         C  0.60592545  0.38217568  0.30164299     0.92600
O34         O  0.64340615  0.47895763  0.27171438    -0.81000
O35         O  0.69537766  0.50259331  0.21300825    -0.74500
Al36       Al  0.62608681  0.43382018  0.24528528     1.90100
O37         O  0.69955611  0.50025222  0.28752688    -0.73600
O38         O  0.72590836  0.46691967  0.20618870    -0.73400
O39         O  0.73617227  0.47092484  0.28020927    -0.79100
O40         O  0.70852262  0.41271278  0.22656582    -0.77300
O41         O  0.66761506  0.43724959  0.24937291    -1.13400
O42         O  0.63856740  0.37298301  0.21368050    -0.72600
C43         C  0.60926459  0.36830576  0.20408834     0.98100
C44         C  0.67157925  0.50027894  0.29112449     0.94500
Al45       Al  0.71052369  0.48137686  0.24694796     1.55600
O46         O  0.60788962  0.40997638  0.29054555    -0.77300
C47         C  0.72698534  0.43910223  0.20463108     0.98600
C48         C  0.66737959  0.48896605  0.19309353     0.93500
O49         O  0.63894964  0.45745218  0.19965118    -0.82600
C50         C  0.11292134  0.57559247  0.00357146     0.02900
C51         C  0.13229830  0.57931893  0.46751826    -0.13300
C52         C  0.17074674  0.60139115  0.46559722     0.00400
C53         C  0.18951487  0.61754305  0.00086813    -0.11800
C54         C  0.17191777  0.60911963  0.03480155     0.02900
C55         C  0.13368913  0.58767671  0.03589297    -0.11200
H56         H  0.11618152  0.57067823  0.44263083     0.08500
H57         H  0.21906311  0.63597426  0.00001825     0.06000
H58         H  0.12009426  0.58181014  0.06209229     0.05800
C59         C  0.33841588  0.96902996  0.00871980     0.02900
C60         C  0.33351888  0.95222712  0.04257278    -0.13300
C61         C  0.32452834  0.91636398  0.04390851     0.00400
C62         C  0.31890389  0.89663557  0.01139686    -0.11800
C63         C  0.32632185  0.91519719  0.47506642     0.02900
C64         C  0.33579854  0.95145729  0.47475313    -0.11200
H65         H  0.33975260  0.96807465  0.06775613     0.08500
H66         H  0.31353617  0.86948939  0.01269121     0.06000
H67         H  0.34066543  0.96520374  0.44889588     0.05800
C68         C  0.55901671  0.73889761  0.99930768     0.02900
C69         C  0.54586559  0.74115872  0.03350884    -0.13300
C70         C  0.52038933  0.74981685  0.03574423     0.00400
C71         C  0.50757161  0.75560371  0.00364101    -0.11800
C72         C  0.52072083  0.75548181  0.47298015     0.02900
C73         C  0.54498578  0.74530117  0.47119369    -0.11200
H74         H  0.55550092  0.73631633  0.05835189     0.08500
H75         H  0.48689826  0.76098094  0.00533216     0.06000
H76         H  0.55291434  0.74093175  0.44466996     0.05800
O77         O  0.34034943  0.71412699  0.29661423    -0.82000
C78         C  0.36812807  0.82953895  0.20529313     0.97300
O79         O  0.34047093  0.80974189  0.22525540    -0.71200
O80         O  0.30954077  0.73987963  0.21059566    -0.74800
Al81       Al  0.32496336  0.76749071  0.25440747     1.49000
C82         C  0.30878168  0.71164683  0.20303567     0.92600
O83         O  0.39741289  0.74753813  0.21148388    -0.81000
O84         O  0.42608465  0.81067445  0.29798260    -0.74500
Al85       Al  0.36868585  0.73343281  0.25382150     1.90100
O86         O  0.43633039  0.80655848  0.22389011    -0.73600
O87         O  0.39138263  0.84090387  0.28488960    -0.73400
O88         O  0.39681499  0.83131543  0.21076663    -0.79100
O89         O  0.33571394  0.79450972  0.29850580    -0.77300
O90         O  0.36767065  0.77310292  0.25413004    -1.13400
O91         O  0.29931200  0.72404137  0.28340103    -0.72600
C92         C  0.31002212  0.70868271  0.30270742     0.98100
C93         C  0.42711011  0.77806948  0.20535387     0.94500
Al94       Al  0.40918809  0.81852085  0.25435761     1.55600
O95         O  0.32717489  0.70387813  0.22161552    -0.77300
C96         C  0.36299565  0.82717940  0.30430641     0.98600
C97         C  0.42746109  0.78376767  0.30497318     0.93500
O98         O  0.41015546  0.75463597  0.28547005    -0.82600
C99         C  0.44901957  0.78579264  0.33656153    -0.05500
C100        C  0.46994497  0.81822716  0.35803715    -0.05400
C101        C  0.48891314  0.81923965  0.38883880    -0.23600
C102        C  0.48721502  0.78782396  0.39865369     0.18600
C103        C  0.46667696  0.75531876  0.37682640     0.15900
C104        C  0.44776760  0.75452337  0.34610445    -0.18600
C105        C  0.46504656  0.72390382  0.38621956    -0.20400
C106        C  0.48344860  0.72454305  0.41712013    -0.13000
C107        C  0.50341159  0.75641626  0.43931351     0.03700
C108        C  0.50529187  0.78808483  0.43004800    -0.25100
H109        H  0.47138957  0.84272281  0.35122470     0.08800
H110        H  0.50463633  0.84445057  0.40512151     0.12400
H111        H  0.43168263  0.72928381  0.32987989     0.12300
H112        H  0.44936767  0.69877979  0.36979999     0.12100
H113        H  0.48147621  0.69981628  0.42423189     0.12600
H114        H  0.52072190  0.81269274  0.44725008     0.14500
C115        C  0.50497473  0.75045029  0.07121857    -0.05500
C116        C  0.48335192  0.71783268  0.09116377    -0.05400
C117        C  0.46490642  0.71709918  0.12243684    -0.23600
C118        C  0.46818022  0.74912918  0.13436272     0.18600
C119        C  0.49127783  0.78250819  0.11532901     0.15900
C120        C  0.50925637  0.78285221  0.08363664    -0.18600
C121        C  0.49521049  0.81470950  0.12778977    -0.20400
C122        C  0.47538921  0.81360096  0.15801509    -0.13000
C123        C  0.45094331  0.78018132  0.17592710     0.03700
C124        C  0.44801700  0.74814405  0.16436220    -0.25100
H125        H  0.47967546  0.69261141  0.08170209     0.08800
H126        H  0.44750597  0.69133848  0.13683285     0.12400
H127        H  0.52601373  0.80804814  0.06818948     0.12300
H128        H  0.51307287  0.84059364  0.11373058     0.12100
H129        H  0.47815790  0.83860286  0.16655292     0.12600
H130        H  0.42961257  0.72231106  0.17836692     0.14500
C131        C  0.32518738  0.89593133  0.44110258    -0.05500
C132        C  0.29588648  0.85890982  0.43477008    -0.05400
C133        C  0.29702080  0.83854377  0.40599665    -0.23600
C134        C  0.32775816  0.85471460  0.38334878     0.18600
C135        C  0.35706875  0.89219120  0.38892409     0.15900
C136        C  0.35539427  0.91273409  0.41750481    -0.18600
C137        C  0.38801180  0.90807535  0.36654994    -0.20400
C138        C  0.39006959  0.88695090  0.33917368    -0.13000
C139        C  0.36114661  0.84960846  0.33352056     0.03700
C140        C  0.32992519  0.83378068  0.35570205    -0.25100
H141        H  0.27245602  0.84549054  0.45276120     0.08800
H142        H  0.27428804  0.80986858  0.40207561     0.12400
H143        H  0.37835573  0.94110602  0.42262426     0.12300
H144        H  0.41077781  0.93673145  0.37045613     0.12100
H145        H  0.41433764  0.89988668  0.32239824     0.12600
H146        H  0.30736405  0.80502282  0.35172608     0.14500
C147        C  0.32811363  0.90210471  0.07835688    -0.05500
C148        C  0.30037545  0.88651884  0.10461548    -0.05400
C149        C  0.30319252  0.87027297  0.13573682    -0.23600
C150        C  0.33385047  0.86961400  0.14080089     0.18600
C151        C  0.36236146  0.88650499  0.11486703     0.15900
C152        C  0.35927097  0.90261334  0.08386115    -0.18600
C153        C  0.39312504  0.88623007  0.11983674    -0.20400
C154        C  0.39526287  0.86839574  0.14972685    -0.13000
C155        C  0.36665849  0.85047491  0.17514527     0.03700
C156        C  0.33618275  0.85168225  0.17080857    -0.25100
H157        H  0.27625239  0.88611547  0.10053737     0.08800
H158        H  0.28117291  0.85765092  0.15543197     0.12400
H159        H  0.38071903  0.91489794  0.06348508     0.12300
H160        H  0.41525188  0.89925070  0.10025887     0.12100
H161        H  0.41904553  0.86797612  0.15249298     0.12600
H162        H  0.31404302  0.83818446  0.19036867     0.14500
C163        C  0.19313497  0.62773264  0.06861705    -0.05500
C164        C  0.18407673  0.64778379  0.09019966    -0.05400
C165        C  0.20454435  0.66730829  0.12116401    -0.23600
C166        C  0.23436556  0.66696541  0.13130629     0.18600
C167        C  0.24344403  0.64628238  0.11038792     0.15900
C168        C  0.22291659  0.62700396  0.07880539    -0.18600
C169        C  0.27307269  0.64568253  0.12135361    -0.20400
C170        C  0.29388007  0.66602363  0.15224966    -0.13000
C171        C  0.28561883  0.68759928  0.17224960     0.03700
C172        C  0.25553671  0.68752509  0.16179298    -0.25100
H173        H  0.16154420  0.64907109  0.08253260     0.08800
H174        H  0.19726293  0.68300558  0.13697471     0.12400
H175        H  0.22995735  0.61150680  0.06224846     0.12300
H176        H  0.28036714  0.62984252  0.10585355     0.12100
H177        H  0.31702425  0.66576144  0.15988154     0.12600
H178        H  0.24868264  0.70374028  0.17734343     0.14500
C179        C  0.18973304  0.61652180  0.43020456    -0.05500
C180        C  0.17603399  0.62906598  0.40460698    -0.05400
C181        C  0.19616578  0.64803174  0.37364020    -0.23600
C182        C  0.23056698  0.65519097  0.36786977     0.18600
C183        C  0.24427422  0.64192370  0.39282910     0.15900
C184        C  0.22361049  0.62233349  0.42359062    -0.18600
C185        C  0.27889612  0.64947425  0.38717762    -0.20400
C186        C  0.30005802  0.67064909  0.35747684    -0.13000
C187        C  0.28689154  0.68451669  0.33288344     0.03700
C188        C  0.25185793  0.67624866  0.33806654    -0.25100
H189        H  0.15045017  0.62573508  0.40929387     0.08800
H190        H  0.18531062  0.65809521  0.35479805     0.12400
H191        H  0.23436163  0.61256274  0.44295023     0.12300
H192        H  0.28986991  0.63957424  0.40606859     0.12100
H193        H  0.32700081  0.67669517  0.35412637     0.12600
H194        H  0.24135414  0.68674052  0.31929361     0.14500
C195        C  0.64658674  0.66241026  0.00438420    -0.05500
C196        C  0.61470105  0.64231595  0.02553342    -0.05400
C197        C  0.59175849  0.65379124  0.02906352    -0.23600
C198        C  0.60025849  0.68566236  0.01153106     0.18600
C199        C  0.63222113  0.70621764  0.99003868     0.15900
C200        C  0.65521663  0.69435513  0.98646941    -0.18600
C201        C  0.64032321  0.73803569  0.97240103    -0.20400
C202        C  0.61666027  0.74890407  0.97555077    -0.13000
C203        C  0.58486855  0.72845077  0.99680826     0.03700
C204        C  0.57701157  0.69701025  0.01491299    -0.25100
H205        H  0.60736437  0.61738536  0.03917574     0.08800
H206        H  0.56728797  0.63765198  0.04545529     0.12400
H207        H  0.67984287  0.71000577  0.97020207     0.12300
H208        H  0.66471203  0.75427028  0.95592967     0.12100
H209        H  0.62318282  0.77334781  0.96149130     0.12600
H210        H  0.55227838  0.68088278  0.03097949     0.14500
C211        C  0.66753612  0.51054282  0.16259051    -0.05500
C212        C  0.63483317  0.49805731  0.14410536    -0.05400
C213        C  0.63436651  0.51855630  0.11587919    -0.23600
C214        C  0.66665231  0.55175092  0.10538297     0.18600
C215        C  0.69983004  0.56468140  0.12360199     0.15900
C216        C  0.69999959  0.54411327  0.15231666    -0.18600
C217        C  0.73224694  0.59764995  0.11235845    -0.20400
C218        C  0.73181314  0.61716091  0.08285208    -0.13000
C219        C  0.69886346  0.60429680  0.06493490     0.03700
C220        C  0.66636994  0.57186753  0.07648439    -0.25100
H221        H  0.60943832  0.47247859  0.15164436     0.08800
H222        H  0.60876964  0.50831030  0.10209022     0.12400
H223        H  0.72540327  0.55405436  0.16637781     0.12300
H224        H  0.75794310  0.60794558  0.12593907     0.12100
H225        H  0.75707591  0.64206732  0.07384472     0.12600
H226        H  0.64103413  0.56180979  0.06216244     0.14500
C227        C  0.67157208  0.52525774  0.31845894    -0.05500
C228        C  0.64041013  0.52519863  0.32324752    -0.05400
C229        C  0.63941684  0.54684266  0.35074015    -0.23600
C230        C  0.66951943  0.56883329  0.37405579     0.18600
C231        C  0.70144913  0.57011081  0.36862280     0.15900
C232        C  0.70233308  0.54849135  0.34083248    -0.18600
C233        C  0.73152735  0.59194626  0.39194733    -0.20400
C234        C  0.72926739  0.61065355  0.42164903    -0.13000
C235        C  0.69694328  0.60795668  0.42857080     0.03700
C236        C  0.66758712  0.58807080  0.40378679    -0.25100
H237        H  0.61643479  0.50780989  0.30620417     0.08800
H238        H  0.61476901  0.54563839  0.35435920     0.08700
H239        H  0.72662475  0.54899274  0.33736151     0.12300
H240        H  0.75632524  0.59348721  0.38801756     0.12100
H241        H  0.75235207  0.62609610  0.44018025     0.12600
H242        H  0.64236307  0.58538509  0.40905425     0.14500
C243        C  0.35486900  0.00899533  0.00759355    -0.05500
C244        C  0.34135198  0.02482275  0.02949094    -0.05400
C245        C  0.35958116  0.06318103  0.03113725    -0.23600
C246        C  0.39193508  0.08620157  0.01142908     0.18600
C247        C  0.40529974  0.07029172  0.98891335     0.15900
C248        C  0.38648784  0.03464474  0.48768491    -0.18600
C249        C  0.43621603  0.09705433  0.47177107    -0.20400
C250        C  0.45408115  0.13507185  0.47560668    -0.13000
C251        C  0.44410613  0.14747640  0.99477642     0.03700
C252        C  0.41148353  0.12479548  0.01423315    -0.25100
H253        H  0.31696173  0.00747469  0.04566119     0.08800
H254        H  0.34885193  0.07485272  0.04841729     0.12400
H255        H  0.39787863  0.02396228  0.46989198     0.12300
H256        H  0.44744050  0.08657198  0.45348480     0.12100
H257        H  0.47890482  0.15311684  0.46024411     0.12600
H258        H  0.40127286  0.13718307  0.03122504     0.14500
C259        C  0.58197444  0.36093180  0.33269089    -0.05500
C260        C  0.56673347  0.37503963  0.35464425    -0.05400
C261        C  0.54545343  0.35553409  0.38501474    -0.23600
C262        C  0.53899216  0.32156160  0.39383895     0.18600
C263        C  0.55358807  0.30687726  0.37136981     0.15900
C264        C  0.57488334  0.32656857  0.34105702    -0.18600
C265        C  0.54727118  0.27301425  0.37991505    -0.20400
C266        C  0.52731486  0.25413646  0.41089228    -0.13000
C267        C  0.51290167  0.26850329  0.43382507     0.03700
C268        C  0.51868514  0.30225895  0.42495661    -0.25100
H269        H  0.57179262  0.40148241  0.34871499     0.08800
H270        H  0.53443266  0.36721515  0.40181908     0.12400
H271        H  0.58623218  0.31523811  0.32418021     0.12300
H272        H  0.55834568  0.26143638  0.36301866     0.12100
H273        H  0.52403872  0.22864351  0.41744020     0.12600
H274        H  0.50756653  0.31351529  0.44228783     0.14500
C275        C  0.58594922  0.33940215  0.17638609    -0.05500
C276        C  0.58939855  0.31015476  0.17038183    -0.05400
C277        C  0.56935574  0.28384181  0.14280684    -0.23600
C278        C  0.54600981  0.28669180  0.12020870     0.18600
C279        C  0.54179083  0.31562197  0.12638101     0.15900
C280        C  0.56133200  0.34144383  0.15484671    -0.18600
C281        C  0.51933374  0.31913225  0.10296059    -0.20400
C282        C  0.50265039  0.29533801  0.07276179    -0.13000
C283        C  0.50734702  0.26707420  0.06607754     0.03700
C284        C  0.52820880  0.26219068  0.09048415    -0.25100
H285        H  0.60792261  0.30779907  0.18689626     0.08800
H286        H  0.57292138  0.26187474  0.13849416     0.12400
H287        H  0.55863080  0.36400789  0.15915540     0.12300
H288        H  0.51580365  0.34112849  0.10718267     0.12100
H289        H  0.48680113  0.29953884  0.05398025     0.12600
H290        H  0.53242348  0.24080660  0.08497889     0.14500
C291        C  0.07330886  0.55898781  0.00529670    -0.05500
C292        C  0.06107152  0.57564516  0.02786659    -0.05400
C293        C  0.02409092  0.56098694  0.03002968    -0.23600
C294        C  0.99854091  0.52926057  0.00975007     0.18600
C295        C  0.01191075  0.50998185  0.48490565     0.15900
C296        C  0.04916067  0.52424493  0.48224378    -0.18600
C297        C  0.98545424  0.47923676  0.46379608    -0.20400
C298        C  0.94847773  0.46530600  0.46695249    -0.13000
C299        C  0.93524254  0.48194908  0.99297980     0.03700
C300        C  0.96134224  0.51419818  0.01256552    -0.25100
H301        H  0.08029640  0.60041433  0.04363847     0.08800
H302        H  0.01546126  0.57440382  0.04771943     0.12400
H303        H  0.05783863  0.51139688  0.46376369     0.12300
H304        H  0.99331513  0.46587498  0.44501770     0.12100
H305        H  0.92850291  0.44122686  0.45078702     0.12600
H306        H  0.95270655  0.52780409  0.02996933     0.14500
C307        C  0.81496352  0.43520597  0.43674838    -0.05500
C308        C  0.77947041  0.40247712  0.43482131    -0.05400
C309        C  0.75522112  0.39736547  0.40748810    -0.23600
C310        C  0.76588188  0.42524947  0.38208770     0.18600
C311        C  0.80176725  0.45804070  0.38352825     0.15900
C312        C  0.82622415  0.46257320  0.41052152    -0.18600
C313        C  0.81224444  0.48621743  0.35864057    -0.20400
C314        C  0.78739282  0.48212331  0.33267805    -0.13000
C315        C  0.75162003  0.44967735  0.33093518     0.03700
C316        C  0.74111402  0.42120629  0.35571673    -0.25100
H317        H  0.77031662  0.38121850  0.45502942     0.08800
H318        H  0.72784941  0.37204919  0.40681722     0.12400
H319        H  0.85337170  0.48817313  0.41234598     0.12300
H320        H  0.83959386  0.51156611  0.35942493     0.12100
H321        H  0.79630346  0.50439263  0.31379943     0.12600
H322        H  0.71366251  0.39598696  0.35462871     0.14500
C323        C  0.75007746  0.43720205  0.17706270    -0.05500
C324        C  0.74670239  0.40396387  0.17088617    -0.05400
C325        C  0.76704885  0.40138575  0.14361039    -0.23600
C326        C  0.79122792  0.43203115  0.12210429     0.18600
C327        C  0.79587898  0.46601223  0.12902087     0.15900
C328        C  0.77525649  0.46834540  0.15638066    -0.18600
C329        C  0.82021569  0.49676349  0.10763845    -0.20400
C330        C  0.83843964  0.49341341  0.07856939    -0.13000
C331        C  0.83267804  0.45938520  0.07063569     0.03700
C332        C  0.80970582  0.42893558  0.09285911    -0.25100
H333        H  0.72768713  0.37963264  0.18662499     0.08800
H334        H  0.76331370  0.37521356  0.13884944     0.12400
H335        H  0.77841271  0.49424847  0.16115130     0.12300
H336        H  0.82420981  0.52303049  0.11261632     0.12100
H337        H  0.85578528  0.51691955  0.06117600     0.12600
H338        H  0.80501910  0.40256673  0.08631680     0.14500
C339        C  0.89820540  0.46701502  0.49546535     0.02900
C340        C  0.88414022  0.46581160  0.53037001    -0.13300
C341        C  0.84765906  0.45326312  0.53456855     0.00400
C342        C  0.82310610  0.44227695  0.00525509    -0.11800
C343        C  0.83620891  0.44227327  0.97040531     0.02900
C344        C  0.87265135  0.45404160  0.96652170    -0.11200
H345        H  0.90148847  0.47463212  0.55438778     0.08500
H346        H  0.79560620  0.43491284  0.00840615     0.06000
H347        H  0.88322310  0.45509852  0.93950817     0.05800
C348        C  0.45865165  0.19035064  0.50025787     0.02900
C349        C  0.46672904  0.20985038  0.53362639    -0.13300
C350        C  0.48766575  0.24874868  0.53413790     0.00400
C351        C  0.50082705  0.26793396  0.50107838    -0.11800
C352        C  0.49994041  0.24660312  0.96482237     0.02900
C353        C  0.47737099  0.20799365  0.96413859    -0.11200
H354        H  0.45810480  0.19500688  0.55915009     0.08500
H355        H  0.51909783  0.29785041  0.50171478     0.06000
H356        H  0.47053383  0.19327845  0.93815087     0.05800
C357        C  0.66367140  0.64355446  0.50228564     0.02900
C358        C  0.67963354  0.64190994  0.96768376    -0.13300
C359        C  0.69769942  0.62441418  0.96585921     0.00400
C360        C  0.70208525  0.61141174  0.49627099    -0.11800
C361        C  0.69265710  0.61734754  0.53070502     0.02900
C362        C  0.67418091  0.63400503  0.53362800    -0.11200
H363        H  0.67098748  0.64770702  0.94273588     0.08500
H364        H  0.71461991  0.59663149  0.49431029     0.06000
H365        H  0.66680502  0.63824335  0.56052848     0.05800
O366        O  0.60036716  0.39021286  0.71983321    -0.82000
C367        C  0.72802811  0.44409290  0.79978649     0.97300
O368        O  0.69656308  0.41450571  0.79650552    -0.71200
O369        O  0.62629608  0.37325229  0.78486336    -0.74800
Al370      Al  0.66753187  0.39732256  0.75358864     1.49000
C371        C  0.60897791  0.38362606  0.80159947     0.92600
O372        O  0.64728953  0.48108945  0.77367314    -0.81000
O373        O  0.69770552  0.50405414  0.71366382    -0.74500
Al374      Al  0.62857102  0.43603098  0.74703249     1.90100
O375        O  0.70331685  0.50130269  0.78836519    -0.73600
O376        O  0.72783521  0.46812638  0.70477444    -0.73400
O377        O  0.73848918  0.47057954  0.77853056    -0.79100
O378        O  0.70816488  0.41247485  0.72281554    -0.77300
O379        O  0.66973251  0.43849761  0.74895597    -1.13400
O380        O  0.63824284  0.37469870  0.71156802    -0.72600
C381        C  0.60864883  0.37043134  0.70419903     0.98100
C382        C  0.67561098  0.50165700  0.79300859     0.94500
Al383      Al  0.71311604  0.48231105  0.74654403     1.55600
O384        O  0.61172685  0.41229623  0.79230049    -0.77300
C385        C  0.72692533  0.43922741  0.70145055     0.98600
C386        C  0.66901871  0.49074010  0.69488432     0.93500
O387        O  0.64044007  0.45955260  0.70187296    -0.82600
C388        C  0.11468439  0.57096357  0.50151917     0.02900
C389        C  0.13074553  0.58392046  0.96978081    -0.13300
C390        C  0.16914383  0.60568225  0.96810177     0.00400
C391        C  0.19126860  0.61387972  0.49823399    -0.11800
C392        C  0.17386268  0.60551810  0.53215848     0.02900
C393        C  0.13572727  0.58320110  0.53363022    -0.11200
H394        H  0.11478447  0.57536973  0.94478315     0.08500
H395        H  0.22076287  0.63299774  0.49729744     0.06000
H396        H  0.12244539  0.57743058  0.56000373     0.05800
C397        C  0.33999819  0.97032510  0.50786533     0.02900
C398        C  0.33459727  0.95252567  0.54119364    -0.13300
C399        C  0.32646248  0.91699074  0.54163053     0.00400
C400        C  0.32163265  0.89822472  0.50866757    -0.11800
C401        C  0.32324997  0.91284358  0.97735395     0.02900
C402        C  0.33298795  0.94910297  0.97618564    -0.11200
H403        H  0.33991053  0.96747976  0.56682705     0.08500
H404        H  0.31640549  0.87110772  0.50927099     0.06000
H405        H  0.33745728  0.96223526  0.95001074     0.05800
C406        C  0.55770917  0.73909898  0.50322477     0.02900
C407        C  0.54513686  0.74248385  0.53734168    -0.13300
C408        C  0.52121540  0.75322767  0.53932555     0.00400
C409        C  0.50965779  0.76036218  0.50708838    -0.11800
C410        C  0.51934145  0.75195694  0.96934245     0.02900
C411        C  0.54548211  0.74415559  0.96730370    -0.11200
H412        H  0.55390292  0.73685294  0.56231193     0.08500
H413        H  0.49006092  0.76721142  0.50846831     0.06000
H414        H  0.55445247  0.74108765  0.94079681     0.05800
O415        O  0.33589276  0.71290725  0.79597069    -0.82000
C416        C  0.36597758  0.82919686  0.70547069     0.97300
O417        O  0.33777481  0.80969929  0.72488833    -0.71200
O418        O  0.30664942  0.73999242  0.70974336    -0.74800
Al419      Al  0.32120022  0.76704570  0.75393456     1.49000
C420        C  0.30637170  0.71208330  0.70200919     0.92600
O421        O  0.39397411  0.74806923  0.71169178    -0.81000
O422        O  0.42010239  0.80847598  0.80067606    -0.74500
Al423      Al  0.36481469  0.73291150  0.75372828     1.90100
O424        O  0.43352167  0.80625016  0.72701848    -0.73600
O425        O  0.38689299  0.84004400  0.78562920    -0.73400
O426        O  0.39455886  0.83111986  0.71218984    -0.79100
O427        O  0.33097441  0.79360998  0.79817512    -0.77300
O428        O  0.36376735  0.77250466  0.75463220    -1.13400
O429        O  0.29511712  0.72328172  0.78266957    -0.72600
C430        C  0.30563333  0.70767873  0.80196505     0.98100
C431        C  0.42421238  0.77853345  0.70710518     0.94500
Al432      Al  0.40535101  0.81772970  0.75628795     1.55600
O433        O  0.32400101  0.70389187  0.72119752    -0.77300
C434        C  0.35808994  0.82627761  0.80428540     0.98600
C435        C  0.42177179  0.78154824  0.80670396     0.93500
O436        O  0.40583310  0.75347198  0.78573736    -0.82600
C437        C  0.44240152  0.78240950  0.83851396    -0.05500
C438        C  0.45921338  0.81239606  0.86337951    -0.05400
C439        C  0.47815977  0.81270428  0.89376345    -0.23600
C440        C  0.48069107  0.78309223  0.89968304     0.18600
C441        C  0.46398227  0.75287516  0.87473222     0.15900
C442        C  0.44482584  0.75264297  0.84450994    -0.18600
C443        C  0.46667691  0.72334258  0.88042573    -0.20400
C444        C  0.48571280  0.72369039  0.91068502    -0.13000
C445        C  0.50194818  0.75333596  0.93588227     0.03700
C446        C  0.49940818  0.78302306  0.93023738    -0.25100
H447        H  0.45757745  0.83555889  0.85945360     0.08800
H448        H  0.49079741  0.83606933  0.91263381     0.12400
H449        H  0.43186127  0.72923881  0.82564341     0.12300
H450        H  0.45392839  0.69992963  0.86160367     0.12100
H451        H  0.48697381  0.70033254  0.91498461     0.12600
H452        H  0.51191833  0.80592041  0.94970615     0.14500
C453        C  0.50514828  0.75351412  0.57449224    -0.05500
C454        C  0.48270987  0.72047442  0.59361571    -0.05400
C455        C  0.46341321  0.71919362  0.62433135    -0.23600
C456        C  0.46662759  0.75108370  0.63655757     0.18600
C457        C  0.49041315  0.78487553  0.61838553     0.15900
C458        C  0.50928443  0.78578563  0.58719205    -0.18600
C459        C  0.49413106  0.81688646  0.63120578    -0.20400
C460        C  0.47356760  0.81518785  0.66102120    -0.13000
C461        C  0.44863714  0.78137141  0.67808290     0.03700
C462        C  0.44576023  0.74952599  0.66606750    -0.25100
H463        H  0.47903414  0.69532980  0.58387273     0.08800
H464        H  0.44542334  0.69312525  0.63806165     0.12400
H465        H  0.52660095  0.81129262  0.57234540     0.12300
H466        H  0.51244248  0.84306931  0.61778670     0.12100
H467        H  0.47618902  0.84003019  0.66991947     0.12600
H468        H  0.42690458  0.72339377  0.67941926     0.14500
C469        C  0.32172545  0.89315008  0.94359522    -0.05500
C470        C  0.29332643  0.85560421  0.93842555    -0.05400
C471        C  0.29403560  0.83554629  0.90908118    -0.23600
C472        C  0.32346118  0.85259714  0.88469812     0.18600
C473        C  0.35174503  0.89060950  0.88905932     0.15900
C474        C  0.35048182  0.91077355  0.91824856    -0.18600
C475        C  0.38140701  0.90743299  0.86491346    -0.20400
C476        C  0.38347801  0.88657055  0.83728043    -0.13000
C477        C  0.35576065  0.84861949  0.83310126     0.03700
C478        C  0.32551099  0.83197993  0.85665307    -0.25100
H479        H  0.27088830  0.84161861  0.95758997     0.08800
H480        H  0.27207212  0.80646215  0.90604221     0.12400
H481        H  0.37277020  0.93962261  0.92234171     0.12300
H482        H  0.40329360  0.93655895  0.86778213     0.12100
H483        H  0.40686809  0.90013442  0.81925294     0.12600
H484        H  0.30387299  0.80275900  0.85370544     0.14500
C485        C  0.32942291  0.90200782  0.57591081    -0.05500
C486        C  0.30528275  0.89320673  0.60493160    -0.05400
C487        C  0.30805039  0.87788248  0.63681219    -0.23600
C488        C  0.33538121  0.87181876  0.64009024     0.18600
C489        C  0.36055945  0.88202605  0.61132486     0.15900
C490        C  0.35723183  0.89678721  0.57938838    -0.18600
C491        C  0.38841519  0.87689870  0.61471925    -0.20400
C492        C  0.39078771  0.86079559  0.64598432    -0.13000
C493        C  0.36513763  0.84923365  0.67417604     0.03700
C494        C  0.33770748  0.85525786  0.67130070    -0.25100
H495        H  0.28395216  0.89752251  0.60257190     0.08800
H496        H  0.28872305  0.87052798  0.65871536     0.12400
H497        H  0.37625147  0.90425521  0.55709276     0.12300
H498        H  0.40804113  0.88485078  0.59297814     0.12100
H499        H  0.41209580  0.85637254  0.64760630     0.12600
H500        H  0.31800005  0.84671902  0.69309565     0.14500
C501        C  0.19493006  0.62594745  0.56529787    -0.05500
C502        C  0.18581066  0.64717105  0.58453592    -0.05400
C503        C  0.20599031  0.66818762  0.61500974    -0.23600
C504        C  0.23544969  0.66804107  0.62699923     0.18600
C505        C  0.24474989  0.64647471  0.60814552     0.15900
C506        C  0.22462266  0.62581459  0.57698248    -0.18600
C507        C  0.27395922  0.64605583  0.62089687    -0.20400
C508        C  0.29373287  0.66687418  0.65194450    -0.13000
C509        C  0.28490855  0.68880514  0.67026021     0.03700
C510        C  0.25573965  0.68923868  0.65757542    -0.25100
H511        H  0.16334014  0.64800271  0.57547238     0.08800
H512        H  0.19858571  0.68460116  0.62915961     0.12400
H513        H  0.23173038  0.60951083  0.56205181     0.12300
H514        H  0.28148338  0.62967874  0.60690252     0.12100
H515        H  0.31634211  0.66639691  0.66123787     0.12600
H516        H  0.24860429  0.70590164  0.67172438     0.14500
C517        C  0.18802256  0.62060042  0.93263729    -0.05500
C518        C  0.17452371  0.63358243  0.90730714    -0.05400
C519        C  0.19397348  0.65136981  0.87567900    -0.23600
C520        C  0.22750593  0.65688334  0.86891170     0.18600
C521        C  0.24103076  0.64322608  0.89363434     0.15900
C522        C  0.22109107  0.62495047  0.92521816    -0.18600
C523        C  0.27477447  0.64907590  0.88686054    -0.20400
C524        C  0.29540230  0.66923225  0.85647510    -0.13000
C525        C  0.28255426  0.68374172  0.83228932     0.03700
C526        C  0.24820992  0.67683994  0.83839288    -0.25100
H527        H  0.14956023  0.63134252  0.91261584     0.08800
H528        H  0.18327798  0.66175568  0.85704264     0.12400
H529        H  0.23166686  0.61486420  0.94440810     0.12300
H530        H  0.28556729  0.63876732  0.90546192     0.12100
H531        H  0.32179658  0.67415261  0.85237739     0.12600
H532        H  0.23793560  0.68779344  0.81992814     0.14500
C533        C  0.64071072  0.65751453  0.50642056    -0.05500
C534        C  0.61189900  0.64109466  0.53179662    -0.05400
C535        C  0.59066493  0.65447180  0.53696482    -0.23600
C536        C  0.59766130  0.68444580  0.51672331     0.18600
C537        C  0.62639951  0.70109982  0.49096723     0.15900
C538        C  0.64770725  0.68748749  0.48591614    -0.18600
C539        C  0.63319881  0.73098557  0.47062609    -0.20400
C540        C  0.61134781  0.74379027  0.47525778    -0.13000
C541        C  0.58239879  0.72709211  0.50043031     0.03700
C542        C  0.57600332  0.69763052  0.52141146    -0.25100
H543        H  0.60555185  0.61756825  0.54752046     0.08800
H544        H  0.56864726  0.64123446  0.55667025     0.12400
H545        H  0.66998681  0.70047868  0.46648076     0.12300
H546        H  0.65518008  0.74423204  0.45089159     0.12100
H547        H  0.61700216  0.76677098  0.45902158     0.12600
H548        H  0.55345828  0.68420395  0.54053308     0.14500
C549        C  0.66824174  0.51230162  0.66534027    -0.05500
C550        C  0.63467511  0.50491904  0.65423190    -0.05400
C551        C  0.63334253  0.52551195  0.62680965    -0.23600
C552        C  0.66550529  0.55339734  0.60966438     0.18600
C553        C  0.69947704  0.56092475  0.62037282     0.15900
C554        C  0.70067962  0.54060149  0.64858094    -0.18600
C555        C  0.73144273  0.58814084  0.60217144    -0.20400
C556        C  0.72958797  0.60721530  0.57317964    -0.13000
C557        C  0.69591789  0.59992216  0.56282638     0.03700
C558        C  0.66407204  0.57328757  0.58137822    -0.25100
H559        H  0.60940951  0.48344797  0.66710767     0.08800
H560        H  0.60713226  0.51940298  0.61878338     0.12400
H561        H  0.72663561  0.54627488  0.65698159     0.12300
H562        H  0.75767164  0.59412539  0.60986899     0.12100
H563        H  0.75428220  0.62749747  0.55870672     0.12600
H564        H  0.63794347  0.56710768  0.57277510     0.14500
C565        C  0.67569146  0.52596300  0.82136466    -0.05500
C566        C  0.64411656  0.52500007  0.82721417    -0.05400
C567        C  0.64309219  0.54636661  0.85496169    -0.23600
C568        C  0.67360676  0.56911251  0.87752857     0.18600
C569        C  0.70575878  0.57090847  0.87150002     0.15900
C570        C  0.70664228  0.54941817  0.84344686    -0.18600
C571        C  0.73616694  0.59341438  0.89429781    -0.20400
C572        C  0.73422358  0.61267187  0.92372070    -0.13000
C573        C  0.70196373  0.61003167  0.93078121     0.03700
C574        C  0.67202165  0.58895005  0.90688531    -0.25100
H575        H  0.61986064  0.50725113  0.81063206     0.08800
H576        H  0.61820596  0.54460063  0.85916095     0.08700
H577        H  0.73115566  0.55045430  0.83929653     0.12300
H578        H  0.76109135  0.59527135  0.89004080     0.12100
H579        H  0.75761961  0.62878472  0.94177338     0.12600
H580        H  0.64678968  0.58617751  0.91242632     0.14500
C581        C  0.35526750  0.01018355  0.50832519    -0.05500
C582        C  0.34140511  0.02444566  0.53214983    -0.05400
C583        C  0.35868350  0.06261573  0.53554897    -0.23600
C584        C  0.39038977  0.08715115  0.51552357     0.18600
C585        C  0.40427470  0.07287693  0.49136850     0.15900
C586        C  0.38653238  0.03189453  0.98690650    -0.18600
C587        C  0.43776259  0.09302985  0.96948127    -0.20400
C588        C  0.45703081  0.13128133  0.97245770    -0.13000
C589        C  0.44022870  0.14979208  0.49883188     0.03700
C590        C  0.40853790  0.12562717  0.51919774    -0.25100
H591        H  0.31743137  0.00600321  0.54846486     0.08800
H592        H  0.34758494  0.07293762  0.55421497     0.12400
H593        H  0.39746553  0.01985280  0.97048217     0.12300
H594        H  0.44842562  0.08124742  0.95225318     0.12100
H595        H  0.48232774  0.14833404  0.95748963     0.12600
H596        H  0.39767896  0.13670258  0.53718895     0.14500
C597        C  0.58523476  0.36157821  0.83218356    -0.05500
C598        C  0.56885952  0.37425664  0.85441787    -0.05400
C599        C  0.54756208  0.35359995  0.88427026    -0.23600
C600        C  0.54243413  0.32006556  0.89221357     0.18600
C601        C  0.55818004  0.30686071  0.86934866     0.15900
C602        C  0.57930104  0.32757943  0.83955783    -0.18600
C603        C  0.55326364  0.27347774  0.87701607    -0.20400
C604        C  0.53364535  0.25367071  0.90770016    -0.13000
C605        C  0.51835748  0.26675573  0.93105874     0.03700
C606        C  0.52248667  0.29982978  0.92295609    -0.25100
H607        H  0.57296232  0.40036982  0.84907193     0.08800
H608        H  0.53557739  0.36407372  0.90140315     0.12400
H609        H  0.59152144  0.31735130  0.82238591     0.12300
H610        H  0.56523338  0.26307897  0.85973061     0.12100
H611        H  0.53135377  0.22857650  0.91376766     0.12600
H612        H  0.51054140  0.30992019  0.94073985     0.14500
C613        C  0.58345147  0.34156163  0.67735853    -0.05500
C614        C  0.58431626  0.31066452  0.67179788    -0.05400
C615        C  0.56237213  0.28407728  0.64511043    -0.23600
C616        C  0.53980040  0.28836074  0.62283562     0.18600
C617        C  0.53805859  0.31893706  0.62862055     0.15900
C618        C  0.55940835  0.34502264  0.65638711    -0.18600
C619        C  0.51638068  0.32376217  0.60535255    -0.20400
C620        C  0.49836638  0.29977068  0.57546139    -0.13000
C621        C  0.50085955  0.26997654  0.56902429     0.03700
C622        C  0.52058195  0.26369286  0.59359471    -0.25100
H623        H  0.60227488  0.30721089  0.68799809     0.08800
H624        H  0.56398363  0.26079370  0.64108504     0.12400
H625        H  0.55867438  0.36885989  0.66045508     0.12300
H626        H  0.51466065  0.34698116  0.60930845     0.12100
H627        H  0.48334310  0.30505810  0.55666842     0.12600
H628        H  0.52311941  0.24112572  0.58838304     0.14500
C629        C  0.07519130  0.55490790  0.50387763    -0.05500
C630        C  0.06363058  0.57143071  0.52766954    -0.05400
C631        C  0.02687919  0.55752068  0.53036562    -0.23600
C632        C  0.00084511  0.52683291  0.50921970     0.18600
C633        C  0.01032812  0.51232571  0.98655185     0.15900
C634        C  0.04781053  0.52749389  0.98423980    -0.18600
C635        C  0.98432854  0.48047999  0.96636897    -0.20400
C636        C  0.94706155  0.46540234  0.96956840    -0.13000
C637        C  0.93735440  0.48186624  0.49128520     0.03700
C638        C  0.96389807  0.51286593  0.51207520    -0.25100
H639        H  0.08321379  0.59564109  0.54392711     0.08800
H640        H  0.01883832  0.57086813  0.54895107     0.12400
H641        H  0.05708044  0.51459515  0.96665029     0.12300
H642        H  0.99276708  0.46708421  0.94839675     0.12100
H643        H  0.92743881  0.44049287  0.95420471     0.12600
H644        H  0.95583960  0.52642756  0.53034173     0.14500
C645        C  0.81261071  0.43404639  0.93823804    -0.05500
C646        C  0.77551570  0.40417946  0.93884123    -0.05400
C647        C  0.75174585  0.39952160  0.91124408    -0.23600
C648        C  0.76461255  0.42485585  0.88272300     0.18600
C649        C  0.80206941  0.45447661  0.88136976     0.15900
C650        C  0.82589345  0.45863943  0.90890332    -0.18600
C651        C  0.81482498  0.48012243  0.85315545    -0.20400
C652        C  0.79063188  0.47680732  0.82682304    -0.13000
C653        C  0.75330515  0.44760075  0.82803988     0.03700
C654        C  0.74053929  0.42147980  0.85595000    -0.25100
H655        H  0.76476616  0.38489989  0.96121931     0.08800
H656        H  0.72314695  0.37662922  0.91269056     0.12400
H657        H  0.85431548  0.48213967  0.90856433     0.12300
H658        H  0.84343580  0.50297853  0.85167645     0.12100
H659        H  0.80121116  0.49706631  0.80535428     0.12600
H660        H  0.71180764  0.39883578  0.85716663     0.14500
C661        C  0.74722783  0.43572428  0.67199113    -0.05500
C662        C  0.73197398  0.40112720  0.65495820    -0.05400
C663        C  0.74975770  0.39724640  0.62588162    -0.23600
C664        C  0.78342697  0.42779588  0.61377664     0.18600
C665        C  0.79991353  0.46243754  0.63184133     0.15900
C666        C  0.78144237  0.46630507  0.66063248    -0.18600
C667        C  0.83412658  0.49267902  0.62014382    -0.20400
C668        C  0.85088162  0.48908748  0.58966976    -0.13000
C669        C  0.83351599  0.45530662  0.57037318     0.03700
C670        C  0.80026972  0.42452394  0.58314923    -0.25100
H671        H  0.70567243  0.37722940  0.66351012     0.08800
H672        H  0.73691337  0.37047108  0.61251418     0.12400
H673        H  0.79355874  0.49292266  0.67415254     0.12300
H674        H  0.84739383  0.51932764  0.63387328     0.12100
H675        H  0.87649962  0.51314828  0.58003216     0.12600
H676        H  0.78697243  0.39834459  0.56842295     0.14500
loop_ 
_geom_bond_atom_site_label_1 
_geom_bond_atom_site_label_2 
_geom_bond_distance 
_geom_bond_site_symmetry_2 
_ccdc_geom_bond_type 
C1            C2   1.409   1_556  A
C1          C344   1.408       .  A
C1          C299   1.484       .  S
C2            C3   1.397       .  A
C2            H7   1.084       .  S
C3          C342   1.395       .  A
C3          C331   1.467       .  S
C4            C5   1.400       .  A
C4          C341   1.399       .  A
C4            H8   1.084       .  S
C5            C6   1.405       .  A
C5          C307   1.477       .  S
C6          C339   1.408       .  A
C6            H9   1.083       .  S
C10          C11   1.406   1_556  A
C10         C353   1.399       .  A
C10         C251   1.476       .  S
C11          C12   1.406       .  A
C11          H16   1.084       .  S
C12          C13   1.402   1_554  A
C12         C283   1.476       .  S
C13         C352   1.401       .  A
C13          H17   1.084       .  S
C14          C15   1.399       .  A
C14         C351   1.403       .  A
C14         C267   1.484       .  S
C15         C348   1.401       .  A
C15          H18   1.084       .  S
C19          C24   1.403       .  A
C19         C358   1.408   1_554  A
C19         C195   1.480       .  S
C20          C21   1.410       .  A
C20         C357   1.410       .  A
C20          H25   1.083       .  S
C21         C360   1.404       .  A
C21         C235   1.484       .  S
C22          C23   1.396   1_556  A
C22         C359   1.405       .  A
C22          H26   1.084       .  S
C23          C24   1.396       .  A
C23         C219   1.468       .  S
C24          H27   1.084       .  S
O28          C43   1.264       .  A
O28         Al36   1.926       .  S
C29         C315   1.480       .  S
C29          O39   1.262       .  A
C29          O30   1.259       .  A
O30         Al32   1.893       .  S
O31          C33   1.262       .  A
O31         Al32   1.909       .  S
Al32         O40   1.917       .  S
Al32         O42   1.878       .  S
Al32         O41   1.785       .  S
C33         C259   1.477       .  S
C33          O46   1.257       .  A
O34          C44   1.266       .  A
O34         Al36   1.922       .  S
O35          C48   1.261       .  A
O35         Al45   1.915       .  S
Al36         O49   1.886       .  S
Al36         O46   1.888       .  S
Al36         O41   1.787       .  S
O37          C44   1.262       .  A
O37         Al45   1.891       .  S
O38          C47   1.263       .  A
O38         Al45   1.892       .  S
O39         Al45   1.914       .  S
O40          C47   1.265       .  A
O41         Al45   1.786       .  S
O42          C43   1.258       .  A
C43         C275   1.478       .  S
C44         C227   1.481       .  S
C47         C323   1.478       .  S
C48         C211   1.477       .  S
C48          O49   1.258       .  A
C50          C55   1.402       .  A
C50         C389   1.402   1_554  A
C50         C291   1.481       .  S
C51          C52   1.410       .  A
C51         C388   1.405       .  A
C51          H56   1.083       .  S
C52         C391   1.407       .  A
C52         C179   1.485       .  S
C53          C54   1.402       .  A
C53         C390   1.408   1_554  A
C53          H57   1.084       .  S
C54          C55   1.401       .  A
C54         C163   1.479       .  S
C55          H58   1.084       .  S
C59          C60   1.404       .  A
C59         C402   1.406   1_554  A
C59         C243   1.475   1_565  S
C60          C61   1.398       .  A
C60          H65   1.084       .  S
C61          C62   1.399       .  A
C61         C147   1.468       .  S
C62         C401   1.402   1_554  A
C62          H66   1.084       .  S
C63          C64   1.406       .  A
C63         C400   1.401       .  A
C63         C131   1.481       .  S
C64         C397   1.411       .  A
C64          H67   1.084       .  S
C68          C69   1.407   1_556  A
C68         C411   1.404       .  A
C68         C203   1.479       .  S
C69          C70   1.402       .  A
C69          H74   1.084       .  S
C70          C71   1.400       .  A
C70         C115   1.474       .  S
C71         C410   1.401   1_554  A
C71          H75   1.084       .  S
C72          C73   1.400       .  A
C72         C409   1.399       .  A
C72         C107   1.472       .  S
C73         C406   1.404       .  A
C73          H76   1.084       .  S
O77          C92   1.256       .  A
O77         Al85   1.887       .  S
C78         C155   1.477       .  S
C78          O88   1.260       .  A
C78          O79   1.263       .  A
O79         Al81   1.917       .  S
O80          C82   1.259       .  A
O80         Al81   1.875       .  S
Al81         O89   1.884       .  S
Al81         O91   1.909       .  S
Al81         O90   1.784       .  S
C82         C171   1.476       .  S
C82          O95   1.266       .  A
O83          C93   1.257       .  A
O83         Al85   1.878       .  S
O84          C97   1.260       .  A
O84         Al94   1.890       .  S
Al85         O98   1.910       .  S
Al85         O95   1.930       .  S
Al85         O90   1.786       .  S
O86          C93   1.265       .  A
O86         Al94   1.929       .  S
O87          C96   1.267       .  A
O87         Al94   1.935       .  S
O88         Al94   1.889       .  S
O89          C96   1.259       .  A
O90         Al94   1.786       .  S
O91          C92   1.261       .  A
C92         C187   1.477       .  S
C93         C123   1.478       .  S
C96         C139   1.483       .  S
C97          C99   1.478       .  S
C97          O98   1.264       .  A
C99         C100   1.407       .  A
C99         C104   1.404       .  A
C100        C101   1.399       .  A
C100        H109   1.083       .  S
C101        C102   1.403       .  A
C101        H110   1.084       .  S
C102        C108   1.405       .  A
C102        C103   1.414       .  A
C103        C105   1.400       .  A
C103        C104   1.398       .  A
C104        H111   1.084       .  S
C105        C106   1.393       .  A
C105        H112   1.084       .  S
C106        C107   1.403       .  A
C106        H113   1.083       .  S
C107        C108   1.404       .  A
C108        H114   1.084       .  S
C115        C116   1.403       .  A
C115        C120   1.404       .  A
C116        C117   1.398       .  A
C116        H125   1.083       .  S
C117        C118   1.404       .  A
C117        H126   1.084       .  S
C118        C124   1.403       .  A
C118        C119   1.414       .  A
C119        C121   1.403       .  A
C119        C120   1.404       .  A
C120        H127   1.084       .  S
C121        C122   1.399       .  A
C121        H128   1.084       .  S
C122        C123   1.404       .  A
C122        H129   1.083       .  S
C123        C124   1.408       .  A
C124        H130   1.084       .  S
C131        C132   1.405       .  A
C131        C136   1.406       .  A
C132        C133   1.396       .  A
C132        H141   1.083       .  S
C133        C134   1.402       .  A
C133        H142   1.084       .  S
C134        C140   1.403       .  A
C134        C135   1.414       .  A
C135        C137   1.403       .  A
C135        C136   1.406       .  A
C136        H143   1.084       .  S
C137        C138   1.400       .  A
C137        H144   1.083       .  S
C138        C139   1.406       .  A
C138        H145   1.083       .  S
C139        C140   1.408       .  A
C140        H146   1.084       .  S
C147        C148   1.401       .  A
C147        C152   1.400       .  A
C148        C149   1.400       .  A
C148        H157   1.083       .  S
C149        C150   1.406       .  A
C149        H158   1.083       .  S
C150        C156   1.404       .  A
C150        C151   1.414       .  A
C151        C153   1.400       .  A
C151        C152   1.398       .  A
C152        H159   1.085       .  S
C153        C154   1.394       .  A
C153        H160   1.084       .  S
C154        C155   1.405       .  A
C154        H161   1.083       .  S
C155        C156   1.409       .  A
C156        H162   1.084       .  S
C163        C164   1.404       .  A
C163        C168   1.407       .  A
C164        C165   1.391       .  A
C164        H173   1.083       .  S
C165        C166   1.399       .  A
C165        H174   1.084       .  S
C166        C172   1.398       .  A
C166        C167   1.414       .  A
C167        C169   1.405       .  A
C167        C168   1.408       .  A
C168        H175   1.084       .  S
C169        C170   1.402       .  A
C169        H176   1.083       .  S
C170        C171   1.405       .  A
C170        H177   1.083       .  S
C171        C172   1.403       .  A
C172        H178   1.085       .  S
C179        C180   1.407       .  A
C179        C184   1.407       .  A
C180        C181   1.395       .  A
C180        H189   1.082       .  S
C181        C182   1.400       .  A
C181        H190   1.084       .  S
C182        C188   1.400       .  A
C182        C183   1.413       .  A
C183        C185   1.402       .  A
C183        C184   1.402       .  A
C184        H191   1.084       .  S
C185        C186   1.397       .  A
C185        H192   1.084       .  S
C186        C187   1.406       .  A
C186        H193   1.083       .  S
C187        C188   1.405       .  A
C188        H194   1.084       .  S
C195        C196   1.405       .  A
C195        C200   1.406   1_554  A
C196        C197   1.392       .  A
C196        H205   1.083       .  S
C197        C198   1.398       .  A
C197        H206   1.084       .  S
C198        C204   1.400       .  A
C198        C199   1.416   1_554  A
C199        C201   1.404       .  A
C199        C200   1.408       .  A
C200        H207   1.084       .  S
C201        C202   1.401       .  A
C201        H208   1.084       .  S
C202        C203   1.406       .  A
C202        H209   1.083       .  S
C203        C204   1.401   1_556  A
C204        H210   1.085       .  S
C211        C212   1.405       .  A
C211        C216   1.408       .  A
C212        C213   1.393       .  A
C212        H221   1.083       .  S
C213        C214   1.400       .  A
C213        H222   1.084       .  S
C214        C220   1.398       .  A
C214        C215   1.414       .  A
C215        C217   1.406       .  A
C215        C216   1.404       .  A
C216        H223   1.084       .  S
C217        C218   1.400       .  A
C217        H224   1.084       .  S
C218        C219   1.401       .  A
C218        H225   1.083       .  S
C219        C220   1.400       .  A
C220        H226   1.085       .  S
C227        C228   1.407       .  A
C227        C232   1.406       .  A
C228        C229   1.398       .  A
C228        H237   1.083       .  S
C229        C230   1.402       .  A
C229        H238   1.083       .  S
C230        C236   1.405       .  A
C230        C231   1.414       .  A
C231        C233   1.400       .  A
C231        C232   1.403       .  A
C232        H239   1.084       .  S
C233        C234   1.395       .  A
C233        H240   1.084       .  S
C234        C235   1.407       .  A
C234        H241   1.083       .  S
C235        C236   1.406       .  A
C236        H242   1.084       .  S
C243        C244   1.404       .  A
C243        C586   1.402   1_554  A
C244        C245   1.398       .  A
C244        H253   1.083       .  S
C245        C246   1.403       .  A
C245        H254   1.084       .  S
C246        C252   1.403       .  A
C246        C247   1.415   1_554  A
C247        C587   1.399       .  A
C247        C586   1.397       .  A
C248        C581   1.402       .  A
C248        C585   1.400       .  A
C248        H255   1.085       .  S
C249        C250   1.391       .  A
C249        C585   1.398       .  A
C249        H256   1.084       .  S
C250        C589   1.407       .  A
C250        H257   1.083       .  S
C251        C252   1.403   1_556  A
C251        C588   1.406       .  A
C252        H258   1.084       .  S
C259        C260   1.406       .  A
C259        C264   1.403       .  A
C260        C261   1.399       .  A
C260        H269   1.083       .  S
C261        C262   1.402       .  A
C261        H270   1.084       .  S
C262        C268   1.405       .  A
C262        C263   1.414       .  A
C263        C265   1.398       .  A
C263        C264   1.399       .  A
C264        H271   1.084       .  S
C265        C266   1.392       .  A
C265        H272   1.084       .  S
C266        C267   1.408       .  A
C266        H273   1.083       .  S
C267        C268   1.406       .  A
C268        H274   1.084       .  S
C275        C276   1.406       .  A
C275        C280   1.405       .  A
C276        C277   1.395       .  A
C276        H285   1.083       .  S
C277        C278   1.400       .  A
C277        H286   1.084       .  S
C278        C284   1.403       .  A
C278        C279   1.416       .  A
C279        C281   1.402       .  A
C279        C280   1.405       .  A
C280        H287   1.085       .  S
C281        C282   1.397       .  A
C281        H288   1.084       .  S
C282        C283   1.404       .  A
C282        H289   1.083       .  S
C283        C284   1.403       .  A
C284        H290   1.085       .  S
C291        C292   1.405       .  A
C291        C634   1.407   1_554  A
C292        C293   1.391       .  A
C292        H301   1.083       .  S
C293        C294   1.398   1_455  A
C293        H302   1.084       .  S
C294        C300   1.398       .  A
C294        C633   1.414   1_654  A
C295        C297   1.403   1_455  A
C295        C296   1.407       .  A
C295        C632   1.414       .  A
C296        C629   1.407       .  A
C296        H303   1.084       .  S
C297        C298   1.401       .  A
C297        H304   1.084       .  S
C298        C637   1.407       .  A
C298        H305   1.083       .  S
C299        C300   1.404   1_556  A
C299        C636   1.407       .  A
C300        H306   1.084       .  S
C307        C308   1.405       .  A
C307        C312   1.403       .  A
C308        C309   1.397       .  A
C308        H317   1.083       .  S
C309        C310   1.402       .  A
C309        H318   1.084       .  S
C310        C316   1.404       .  A
C310        C311   1.415       .  A
C311        C313   1.400       .  A
C311        C312   1.403       .  A
C312        H319   1.085       .  S
C313        C314   1.396       .  A
C313        H320   1.084       .  S
C314        C315   1.407       .  A
C314        H321   1.083       .  S
C315        C316   1.407       .  A
C316        H322   1.084       .  S
C323        C324   1.407       .  A
C323        C328   1.405       .  A
C324        C325   1.396       .  A
C324        H333   1.083       .  S
C325        C326   1.400       .  A
C325        H334   1.084       .  S
C326        C332   1.403       .  A
C326        C327   1.416       .  A
C327        C329   1.402       .  A
C327        C328   1.402       .  A
C328        H335   1.085       .  S
C329        C330   1.396       .  A
C329        H336   1.084       .  S
C330        C331   1.402       .  A
C330        H337   1.083       .  S
C331        C332   1.400       .  A
C332        H338   1.085       .  S
C339        C340   1.409       .  A
C339        C637   1.485       .  S
C340        C341   1.400       .  A
C340        H345   1.083       .  S
C341        C669   1.476       .  S
C342        C343   1.401   1_554  A
C342        H346   1.085       .  S
C343        C344   1.407       .  A
C343        C645   1.480       .  S
C344        H347   1.083       .  S
C348        C349   1.406       .  A
C348        C589   1.483       .  S
C349        C350   1.409       .  A
C349        H354   1.084       .  S
C350        C351   1.406       .  A
C350        C621   1.480       .  S
C351        H355   1.084       .  S
C352        C353   1.397       .  A
C352        C605   1.475       .  S
C353        H356   1.084       .  S
C357        C362   1.402       .  A
C357        C533   1.483       .  S
C358        C359   1.410       .  A
C358        H363   1.084       .  S
C359        C573   1.484       .  S
C360        C361   1.395       .  A
C360        H364   1.084       .  S
C361        C362   1.396       .  A
C361        C557   1.469       .  S
C362        H365   1.084       .  S
O366        C381   1.263       .  A
O366       Al374   1.923       .  S
C367        C653   1.476       .  S
C367        O377   1.261       .  A
C367        O368   1.259       .  A
O368       Al370   1.891       .  S
O369        C371   1.261       .  A
O369       Al370   1.898       .  S
Al370       O378   1.905       .  S
Al370       O380   1.882       .  S
Al370       O379   1.781       .  S
C371        C597   1.469       .  S
C371        O384   1.256       .  A
O372        C382   1.263       .  A
O372       Al374   1.912       .  S
O373        C386   1.263       .  A
O373       Al383   1.915       .  S
Al374       O387   1.870       .  S
Al374       O384   1.881       .  S
Al374       O379   1.787       .  S
O375        C382   1.263       .  A
O375       Al383   1.904       .  S
O376        C385   1.262       .  A
O376       Al383   1.899       .  S
O377       Al383   1.910       .  S
O378        C385   1.262       .  A
O379       Al383   1.790       .  S
O380        C381   1.258       .  A
C381        C613   1.476       .  S
C382        C565   1.483       .  S
C385        C661   1.471       .  S
C386        C549   1.467       .  S
C386        O387   1.257       .  A
C388        C393   1.401       .  A
C388        C629   1.482       .  S
C389        C390   1.408       .  A
C389        H394   1.083       .  S
C390        C517   1.484       .  S
C391        C392   1.398       .  A
C391        H395   1.084       .  S
C392        C393   1.397       .  A
C392        C501   1.473       .  S
C393        H396   1.084       .  S
C397        C398   1.404       .  A
C397        C581   1.481   1_565  S
C398        C399   1.397       .  A
C398        H403   1.084       .  S
C399        C400   1.398       .  A
C399        C485   1.469       .  S
C400        H404   1.085       .  S
C401        C402   1.403       .  A
C401        C469   1.480       .  S
C402        H405   1.084       .  S
C406        C407   1.408       .  A
C406        C541   1.483       .  S
C407        C408   1.405       .  A
C407        H412   1.084       .  S
C408        C409   1.402       .  A
C408        C453   1.474       .  S
C409        H413   1.084       .  S
C410        C411   1.403       .  A
C410        C445   1.475       .  S
C411        H414   1.084       .  S
O415        C430   1.257       .  A
O415       Al423   1.883       .  S
C416        C493   1.473       .  S
C416        O426   1.260       .  A
C416        O417   1.264       .  A
O417       Al419   1.919       .  S
O418        C420   1.258       .  A
O418       Al419   1.877       .  S
Al419       O427   1.884       .  S
Al419       O429   1.914       .  S
Al419       O428   1.781       .  S
C420        C509   1.472       .  S
C420        O433   1.263       .  A
O421        C431   1.257       .  A
O421       Al423   1.876       .  S
O422        C435   1.262       .  A
O422       Al432   1.893       .  S
Al423       O436   1.907       .  S
Al423       O433   1.917       .  S
Al423       O428   1.783       .  S
O424        C431   1.264       .  A
O424       Al432   1.928       .  S
O425        C434   1.265       .  A
O425       Al432   1.930       .  S
O426       Al432   1.885       .  S
O427        C434   1.259       .  A
O428       Al432   1.783       .  S
O429        C430   1.263       .  A
C430        C525   1.477       .  S
C431        C461   1.475       .  S
C434        C477   1.480       .  S
C435        C437   1.476       .  S
C435        O436   1.263       .  A
C437        C438   1.405       .  A
C437        C442   1.406       .  A
C438        C439   1.397       .  A
C438        H447   1.083       .  S
C439        C440   1.402       .  A
C439        H448   1.084       .  S
C440        C446   1.402       .  A
C440        C441   1.414       .  A
C441        C443   1.402       .  A
C441        C442   1.399       .  A
C442        H449   1.084       .  S
C443        C444   1.395       .  A
C443        H450   1.084       .  S
C444        C445   1.404       .  A
C444        H451   1.083       .  S
C445        C446   1.404       .  A
C446        H452   1.084       .  S
C453        C454   1.403       .  A
C453        C458   1.404       .  A
C454        C455   1.396       .  A
C454        H463   1.083       .  S
C455        C456   1.402       .  A
C455        H464   1.084       .  S
C456        C462   1.401       .  A
C456        C457   1.414       .  A
C457        C459   1.404       .  A
C457        C458   1.404       .  A
C458        H465   1.084       .  S
C459        C460   1.399       .  A
C459        H466   1.084       .  S
C460        C461   1.404       .  A
C460        H467   1.083       .  S
C461        C462   1.405       .  A
C462        H468   1.085       .  S
C469        C470   1.404       .  A
C469        C474   1.407       .  A
C470        C471   1.395       .  A
C470        H479   1.083       .  S
C471        C472   1.401       .  A
C471        H480   1.084       .  S
C472        C478   1.401       .  A
C472        C473   1.414       .  A
C473        C475   1.403       .  A
C473        C474   1.404       .  A
C474        H481   1.084       .  S
C475        C476   1.398       .  A
C475        H482   1.084       .  S
C476        C477   1.406       .  A
C476        H483   1.083       .  S
C477        C478   1.406       .  A
C478        H484   1.084       .  S
C485        C486   1.401       .  A
C485        C490   1.401       .  A
C486        C487   1.399       .  A
C486        H495   1.083       .  S
C487        C488   1.405       .  A
C487        H496   1.083       .  S
C488        C494   1.402       .  A
C488        C489   1.414       .  A
C489        C491   1.400       .  A
C489        C490   1.397       .  A
C490        H497   1.085       .  S
C491        C492   1.393       .  A
C491        H498   1.084       .  S
C492        C493   1.404       .  A
C492        H499   1.083       .  S
C493        C494   1.407       .  A
C494        H500   1.084       .  S
C501        C502   1.404       .  A
C501        C506   1.404       .  A
C502        C503   1.390       .  A
C502        H511   1.084       .  S
C503        C504   1.398       .  A
C503        H512   1.084       .  S
C504        C510   1.397       .  A
C504        C505   1.415       .  A
C505        C507   1.403       .  A
C505        C506   1.405       .  A
C506        H513   1.084       .  S
C507        C508   1.400       .  A
C507        H514   1.083       .  S
C508        C509   1.405       .  A
C508        H515   1.083       .  S
C509        C510   1.401       .  A
C510        H516   1.085       .  S
C517        C518   1.407       .  A
C517        C522   1.407       .  A
C518        C519   1.394       .  A
C518        H527   1.083       .  S
C519        C520   1.399       .  A
C519        H528   1.084       .  S
C520        C526   1.400       .  A
C520        C521   1.414       .  A
C521        C523   1.402       .  A
C521        C522   1.404       .  A
C522        H529   1.084       .  S
C523        C524   1.397       .  A
C523        H530   1.084       .  S
C524        C525   1.407       .  A
C524        H531   1.083       .  S
C525        C526   1.404       .  A
C526        H532   1.084       .  S
C533        C534   1.408       .  A
C533        C538   1.404       .  A
C534        C535   1.394       .  A
C534        H543   1.083       .  S
C535        C536   1.399       .  A
C535        H544   1.084       .  S
C536        C542   1.403       .  A
C536        C537   1.415       .  A
C537        C539   1.401       .  A
C537        C538   1.405       .  A
C538        H545   1.084       .  S
C539        C540   1.397       .  A
C539        H546   1.084       .  S
C540        C541   1.407       .  A
C540        H547   1.083       .  S
C541        C542   1.404       .  A
C542        H548   1.084       .  S
C549        C550   1.404       .  A
C549        C554   1.404       .  A
C550        C551   1.390       .  A
C550        H559   1.083       .  S
C551        C552   1.398       .  A
C551        H560   1.084       .  S
C552        C558   1.395       .  A
C552        C553   1.415       .  A
C553        C555   1.404       .  A
C553        C554   1.401       .  A
C554        H561   1.085       .  S
C555        C556   1.398       .  A
C555        H562   1.084       .  S
C556        C557   1.402       .  A
C556        H563   1.083       .  S
C557        C558   1.400       .  A
C558        H564   1.085       .  S
C565        C566   1.408       .  A
C565        C570   1.406       .  A
C566        C567   1.396       .  A
C566        H575   1.083       .  S
C567        C568   1.401       .  A
C567        H576   1.084       .  S
C568        C574   1.405       .  A
C568        C569   1.414       .  A
C569        C571   1.401       .  A
C569        C570   1.406       .  A
C570        H577   1.084       .  S
C571        C572   1.397       .  A
C571        H578   1.083       .  S
C572        C573   1.406       .  A
C572        H579   1.083       .  S
C573        C574   1.406       .  A
C574        H580   1.084       .  S
C581        C582   1.407       .  A
C582        C583   1.400       .  A
C582        H591   1.083       .  S
C583        C584   1.403       .  A
C583        H592   1.084       .  S
C584        C590   1.407       .  A
C584        C585   1.415       .  A
C586        H593   1.085       .  S
C587        C588   1.392       .  A
C587        H594   1.084       .  S
C588        H595   1.083       .  S
C589        C590   1.406       .  A
C590        H596   1.084       .  S
C597        C598   1.405       .  A
C597        C602   1.401       .  A
C598        C599   1.397       .  A
C598        H607   1.083       .  S
C599        C600   1.402       .  A
C599        H608   1.084       .  S
C600        C606   1.400       .  A
C600        C601   1.414       .  A
C601        C603   1.398       .  A
C601        C602   1.393       .  A
C602        H609   1.085       .  S
C603        C604   1.389       .  A
C603        H610   1.084       .  S
C604        C605   1.406       .  A
C604        H611   1.083       .  S
C605        C606   1.404       .  A
C606        H612   1.084       .  S
C613        C614   1.405       .  A
C613        C618   1.406       .  A
C614        C615   1.394       .  A
C614        H623   1.083       .  S
C615        C616   1.400       .  A
C615        H624   1.084       .  S
C616        C622   1.402       .  A
C616        C617   1.415       .  A
C617        C619   1.403       .  A
C617        C618   1.407       .  A
C618        H625   1.085       .  S
C619        C620   1.400       .  A
C619        H626   1.084       .  S
C620        C621   1.405       .  A
C620        H627   1.083       .  S
C621        C622   1.403       .  A
C622        H628   1.085       .  S
C629        C630   1.407       .  A
C630        C631   1.390       .  A
C630        H639   1.083       .  S
C631        C632   1.398       .  A
C631        H640   1.084       .  S
C632        C638   1.398   1_455  A
C633        C635   1.404   1_455  A
C633        C634   1.407       .  A
C634        H641   1.084       .  S
C635        C636   1.402       .  A
C635        H642   1.084       .  S
C636        H643   1.083       .  S
C637        C638   1.404       .  A
C638        H644   1.084       .  S
C645        C646   1.406       .  A
C645        C650   1.404       .  A
C646        C647   1.395       .  A
C646        H655   1.083       .  S
C647        C648   1.401       .  A
C647        H656   1.084       .  S
C648        C654   1.402       .  A
C648        C649   1.415       .  A
C649        C651   1.401       .  A
C649        C650   1.402       .  A
C650        H657   1.084       .  S
C651        C652   1.396       .  A
C651        H658   1.084       .  S
C652        C653   1.406       .  A
C652        H659   1.083       .  S
C653        C654   1.405       .  A
C654        H660   1.085       .  S
C661        C662   1.404       .  A
C661        C666   1.404       .  A
C662        C663   1.393       .  A
C662        H671   1.083       .  S
C663        C664   1.399       .  A
C663        H672   1.084       .  S
C664        C670   1.400       .  A
C664        C665   1.416       .  A
C665        C667   1.403       .  A
C665        C666   1.405       .  A
C666        H673   1.085       .  S
C667        C668   1.399       .  A
C667        H674   1.084       .  S
C668        C669   1.405       .  A
C668        H675   1.083       .  S
C669        C670   1.402       .  A
C670        H676   1.085       .  S
