geometry optimzed in LAMMPS
_audit_creation_date              2020-11-30 
_audit_creation_method            'lammps2cif' 
_symmetry_space_group_name_H-M    'P1' 
_symmetry_Int_Tables_number       1 
_symmetry_cell_setting            triclinic 
loop_ 
_symmetry_equiv_pos_as_xyz 
  x,y,z 
_cell_length_a                    31.600307988953816 
_cell_length_b                    31.600814334660715 
_cell_length_c                    31.600428043240555 
_cell_angle_alpha                 89.81305653016186 
_cell_angle_beta                  90.18244577942824 
_cell_angle_gamma                 90.18324788462894 
loop_ 
_atom_site_label 
_atom_site_type_symbol 
_atom_site_fract_x 
_atom_site_fract_y 
_atom_site_fract_z 
_atom_site_charge 
O1          O  0.17924169  0.00283842  0.28143160    -0.88850
C2          C  0.28695829  0.01648556  0.33665410     0.87170
Mg3        Mg  0.16298016  0.45127692  0.24662953     1.58150
O4          O  0.27648160  0.07295671  0.24548426    -0.88590
O5          O  0.18341836  0.06992555  0.26232157    -0.75920
C6          C  0.34165478  0.40259301  0.14843499     0.92230
O7          O  0.24217678  0.43797141  0.32135580    -0.75730
O8          O  0.30921949  0.38351801  0.16349775    -0.83240
Mg9        Mg  0.20462387  0.49615526  0.34205852     1.57960
C10         C  0.34656812  0.09272912  0.15165854     0.92150
O11         O  0.15942401  0.05678211  0.35642535    -0.81500
H12         H  0.24050679  0.11352342  0.21268688    -0.06840
C13         C  0.33627206  0.46530168  0.23529332     0.87090
O14         O  0.18039837  0.48704858  0.18673257    -0.76010
O15         O  0.25360813  0.03343810  0.32435498    -0.88770
O16         O  0.34763403  0.09323674  0.19258426    -0.81580
C17         C  0.34461486  0.10556611  0.33950133     0.92260
C18         C  0.15824205  0.09761188  0.35158409     0.92120
Mg19       Mg  0.29527574  0.00404088  0.15797486     1.57950
O20         O  0.34047106  0.44342228  0.14359546    -0.81500
O21         O  0.25772423  0.06221885  0.17868497    -0.75750
O22         O  0.30403019  0.11114138  0.33976888    -0.81590
O23         O  0.16568486  0.44158317  0.36665261    -0.83300
O24         O  0.19587381  0.38904678  0.16026689    -0.81620
C25         C  0.25841758  0.08443635  0.21229334     0.86550
O26         O  0.24629711  0.46675121  0.17568349    -0.88760
O27         O  0.32066890  0.49734897  0.21859898    -0.88860
O28         O  0.31649158  0.43026061  0.23770721    -0.75920
Mg29       Mg  0.24299023  0.09281357  0.29629340     1.57970
O30         O  0.36112805  0.08944468  0.30652647    -0.83290
H31         H  0.13319696  0.03216544  0.24928929    -0.07020
O32         O  0.22342704  0.42722463  0.25455523    -0.88560
H33         H  0.25940526  0.38666617  0.28735963    -0.06840
H34         H  0.21274148  0.99923487  0.13286905    -0.07020
C35         C  0.24149073  0.41575106  0.28774869     0.86530
C36         C  0.16363925  0.03488384  0.26473364     0.87120
C37         C  0.21294528  0.48369720  0.16338141     0.87160
H38         H  0.36671630  0.46801820  0.25073420    -0.07000
O39         O  0.31950447  0.01313048  0.31330183    -0.76030
Mg40       Mg  0.25691691  0.40737413  0.20373970     1.58000
H41         H  0.28716118  0.50094573  0.36716572    -0.07020
C42         C  0.15332697  0.40747073  0.34837968     0.92150
O43         O  0.13878061  0.41073503  0.19352197    -0.83260
C44         C  0.15528892  0.39461998  0.16054202     0.92210
O45         O  0.19068103  0.11668288  0.33652385    -0.83240
Mg46       Mg  0.33692855  0.04890639  0.25340902     1.58180
O47         O  0.15226952  0.40694986  0.30745439    -0.81570
O48         O  0.33420791  0.05862162  0.13337750    -0.83270
O49         O  0.49547661  0.32210018  0.21939773    -0.88850
C50         C  0.48618480  0.21290362  0.16443648     0.87170
Mg51       Mg  0.04592592  0.34104747  0.25398082     1.58150
O52         O  0.42794434  0.21948136  0.25447828    -0.88590
O53         O  0.42881877  0.31401013  0.23871734    -0.75920
C54         C  0.09824961  0.16152012  0.35215293     0.92230
O55         O  0.06384970  0.26141092  0.17891467    -0.75730
O56         O  0.11701003  0.19436048  0.33770300    -0.83240
Mg57       Mg  0.00390309  0.29610099  0.15909213     1.57960
C58         C  0.41135451  0.14795789  0.34832613     0.92150
O59         O  0.44250002  0.33814899  0.14548617    -0.81500
H60         H  0.38398893  0.25198652  0.28602149    -0.06840
C61         C  0.03714794  0.16453433  0.26377270     0.87090
O62         O  0.01122762  0.32122631  0.31392693    -0.76010
O63         O  0.46932094  0.24565065  0.17803853    -0.88770
O64         O  0.41189379  0.14557203  0.30746586    -0.81580
C65         C  0.39780358  0.15179765  0.16143466     0.92260
C66         C  0.40163960  0.33869106  0.14786983     0.92120
Mg67       Mg  0.49597852  0.20411312  0.34094845     1.57950
O68         O  0.05738865  0.16205953  0.35454044    -0.81500
O69         O  0.43602675  0.23880420  0.32113333    -0.75750
O70         O  0.39541532  0.19265765  0.16197294    -0.81590
O71         O  0.05569912  0.33779178  0.13295018    -0.83300
O72         O  0.10446044  0.30755997  0.33806916    -0.81620
C73         C  0.41434608  0.23634518  0.28722762     0.86550
O74         O  0.03055449  0.25457085  0.32200773    -0.88760
O75         O  0.00439719  0.17812781  0.28063892    -0.88860
O76         O  0.07105362  0.18621570  0.26131743    -0.75920
Mg77       Mg  0.40900726  0.25406372  0.20402331     1.57970
O78         O  0.41225699  0.13303586  0.19427273    -0.83290
H79         H  0.46392584  0.36604733  0.25190474    -0.07020
O80         O  0.07192318  0.28074180  0.24556738    -0.88560
H81         H  0.11588627  0.24824002  0.21403193    -0.06840
H82         H  0.49803945  0.28610731  0.36596007    -0.07020
C83         C  0.08552732  0.26387746  0.21282119     0.86530
C84         C  0.46272380  0.33569313  0.23626127     0.87120
C85         C  0.01368558  0.28731779  0.33560547     0.87160
H86         H  0.03594361  0.13418144  0.24812691    -0.07000
O87         O  0.48864202  0.17899456  0.18611326    -0.76030
Mg88       Mg  0.09086594  0.24615842  0.29601602     1.58000
H89         H  0.00182722  0.21411425  0.13408000    -0.07020
C90         C  0.08853327  0.35224778  0.15171441     0.92150
O91         O  0.08761848  0.36718574  0.30577587    -0.83260
C92         C  0.10207410  0.34841986  0.33861115     0.92210
O93         O  0.38287408  0.30585545  0.16232372    -0.83240
Mg94       Mg  0.45394759  0.15917655  0.24606156     1.58180
O95         O  0.08798473  0.35464183  0.19257450    -0.81570
O96         O  0.44419051  0.16241420  0.36708618    -0.83270
O97         O  0.24720899  0.28152422  0.07072307    -0.88850
C98         C  0.23354543  0.33673212  0.46299925     0.87170
Mg99       Mg  0.29877066  0.24672072  0.08698601     1.58150
O100        O  0.17707382  0.24556270  0.47348945    -0.88590
O101        O  0.18012337  0.26240541  0.06655178    -0.75920
C102        C  0.34744914  0.14852277  0.40831365     0.92230
O103        O  0.31206901  0.32144065  0.00777752    -0.75730
O104        O  0.36651997  0.16358878  0.44074760    -0.83240
Mg105      Mg  0.25389011  0.34214810  0.04533543     1.57960
C106        C  0.15731326  0.15173866  0.40339366     0.92150
O107        O  0.19327058  0.35651661  0.09053448    -0.81500
H108        H  0.13650908  0.21276356  0.00946632    -0.06840
C109        C  0.28472576  0.23537523  0.41369589     0.87090
O110        O  0.26299344  0.18682765  0.06957546    -0.76010
O111        O  0.21659970  0.32443464  0.49635395    -0.88770
O112        O  0.15679613  0.19266371  0.40233462    -0.81580
C113        C  0.14446172  0.33958087  0.40535416     0.92260
C114        C  0.15244132  0.35167226  0.09172446     0.92120
Mg115      Mg  0.24599693  0.15805477  0.45469010     1.57950
O116        O  0.30661964  0.14367985  0.40949737    -0.81500
O117        O  0.18781363  0.17876119  0.49224196    -0.75750
O118        O  0.13889020  0.33985164  0.44593939    -0.81590
O119        O  0.30846995  0.36674766  0.08426643    -0.83300
O120        O  0.36099116  0.16034899  0.05409755    -0.81620
C121        C  0.16559556  0.21237077  0.49155324     0.86550
O122        O  0.28328306  0.17576811  0.00367551    -0.88760
O123        O  0.25268065  0.21867933  0.42930181    -0.88860
O124        O  0.31976768  0.23779076  0.43347457    -0.75920
Mg125      Mg  0.15722491  0.29637555  0.00698130     1.57970
O126        O  0.16057637  0.30660212  0.38884315    -0.83290
H127        H  0.21788794  0.24938271  0.11677359    -0.07020
O128        O  0.32281057  0.25464042  0.02653461    -0.88560
H129        H  0.36337109  0.28743630  0.49054985    -0.06840
H130        H  0.25079393  0.13296571  0.03723545    -0.07020
C131        C  0.33428672  0.28783077  0.00846630     0.86530
C132        C  0.21516575  0.26482458  0.08632933     0.87120
C133        C  0.26633598  0.16347419  0.03703085     0.87160
H134        H  0.28200627  0.25081601  0.38325082    -0.07000
O135        O  0.23689422  0.31337939  0.43045487    -0.76030
Mg136      Mg  0.34265967  0.20382375  0.49305074     1.58000
H137        H  0.24908309  0.36724282  0.46279604    -0.07020
C138        C  0.34258349  0.34847072  0.09662199     0.92150
O139        O  0.33931126  0.19360726  0.11118946    -0.83260
C140        C  0.35542313  0.16062496  0.09468329     0.92210
O141        O  0.13336573  0.33660871  0.05929170    -0.83240
Mg142      Mg  0.20112019  0.25348734  0.41303980     1.58180
O143        O  0.34310130  0.30754539  0.09768161    -0.81570
O144        O  0.19142424  0.13345968  0.41575237    -0.83270
O145        O  0.07429068  0.00376880  0.46667302    -0.88850
C146        C  0.46222110  0.00857376  0.41568831     0.87170
Mg147      Mg  0.09200914  0.45478541  0.00396406     1.58150
O148        O  0.46853655  0.07081899  0.00276977    -0.88590
O149        O  0.06323643  0.06966498  0.48697282    -0.75920
C150        C  0.41047922  0.40544259  0.10549361     0.92230
O151        O  0.01226465  0.43358028  0.43020139    -0.75730
O152        O  0.44345984  0.38893453  0.08937813    -0.83240
Mg153      Mg  0.04623205  0.49315143  0.40730595     1.57960
C154        C  0.39838036  0.09181065  0.09753472     0.92150
O155        O  0.08969464  0.05418767  0.38896465    -0.81500
H156        H  0.00067857  0.11686380  0.03209187    -0.06840
C157        C  0.41333036  0.46310824  0.01643210     0.87090
O158        O  0.07130527  0.49233862  0.06214512    -0.76010
O159        O  0.49541302  0.02663740  0.42716249    -0.88770
O160        O  0.39353965  0.09062653  0.05670582    -0.81580
C161        C  0.40158556  0.09672020  0.40739688     0.92260
C162        C  0.08942316  0.09477157  0.39453651     0.92120
Mg163      Mg  0.45368017  0.00706860  0.09274925     1.57950
O164        O  0.41020951  0.44602612  0.11107415    -0.81500
O165        O  0.48765065  0.06664156  0.06985632    -0.75750
O166        O  0.44251117  0.09778485  0.40688043    -0.81590
O167        O  0.08646012  0.44084305  0.38344049    -0.83300
O168        O  0.05739610  0.40242997  0.09316620    -0.81620
C169        C  0.48523549  0.08642120  0.03481342     0.86550
O170        O  0.00450454  0.47358480  0.07289849    -0.88760
O171        O  0.42563317  0.49645729  0.03337911    -0.88860
O172        O  0.43668231  0.43056372  0.01307325    -0.75920
Mg173      Mg  0.00333819  0.08708380  0.45120518     1.57970
O174        O  0.38330899  0.08436527  0.44151114    -0.83290
H175        H  0.11710305  0.03731992  0.99915275    -0.07020
O176        O  0.03138078  0.42941275  0.49728595    -0.88560
H177        H  0.49924577  0.38335946  0.46797031    -0.06840
H178        H  0.03729700  0.00955773  0.11344995    -0.07020
C179        C  0.01468419  0.41380404  0.46524509     0.86530
C180        C  0.08658986  0.03712031  0.48361901     0.87120
C181        C  0.03769800  0.49164962  0.08436859     0.87160
H182        H  0.38281618  0.46291166  0.50090042    -0.07000
O183        O  0.42861340  0.00788299  0.43790990    -0.76030
Mg184      Mg  0.49657586  0.41314165  0.04884299     1.58000
H185        H  0.46262458  0.49066516  0.38660764    -0.07020
C186        C  0.10152158  0.40840605  0.40251392     0.92150
O187        O  0.11660201  0.41584551  0.05853967    -0.83260
C188        C  0.09832135  0.40348757  0.09265075     0.92210
O189        O  0.05644596  0.11128188  0.41065618    -0.83240
Mg190      Mg  0.40791022  0.04543577  0.49608910     1.58180
O191        O  0.10637015  0.40959074  0.44334260    -0.81570
O192        O  0.41344436  0.05937562  0.11660979    -0.83270
C193        C  0.37514629  0.37465441  0.12458035    -0.03000
C194        C  0.37539611  0.12466792  0.37482744    -0.03000
C195        C  0.12536814  0.37491223  0.37456998    -0.03000
C196        C  0.12475004  0.12555572  0.37543774    -0.03000
C197        C  0.37452043  0.12529851  0.12547316    -0.03000
C198        C  0.12450144  0.37552861  0.12521570    -0.03000
O199        O  0.17924169  0.00283842  0.78143160    -0.88850
C200        C  0.28695828  0.01648556  0.83665411     0.87170
Mg201      Mg  0.16298017  0.45127692  0.74662953     1.58150
O202        O  0.27648160  0.07295670  0.74548426    -0.88590
O203        O  0.18341836  0.06992555  0.76232157    -0.75920
C204        C  0.34165479  0.40259300  0.64843499     0.92230
O205        O  0.24217678  0.43797141  0.82135580    -0.75730
O206        O  0.30921949  0.38351800  0.66349775    -0.83240
Mg207      Mg  0.20462387  0.49615526  0.84205852     1.57960
C208        C  0.34656812  0.09272911  0.65165854     0.92150
O209        O  0.15942401  0.05678211  0.85642534    -0.81500
H210        H  0.24050679  0.11352341  0.71268688    -0.06840
C211        C  0.33627207  0.46530169  0.73529332     0.87090
O212        O  0.18039838  0.48704858  0.68673257    -0.76010
O213        O  0.25360813  0.03343810  0.82435498    -0.88770
O214        O  0.34763403  0.09323673  0.69258426    -0.81580
C215        C  0.34461486  0.10556611  0.83950133     0.92260
C216        C  0.15824205  0.09761188  0.85158409     0.92120
Mg217      Mg  0.29527575  0.00404088  0.65797486     1.57950
O218        O  0.34047107  0.44342228  0.64359546    -0.81500
O219        O  0.25772423  0.06221884  0.67868497    -0.75750
O220        O  0.30403019  0.11114138  0.83976888    -0.81590
O221        O  0.16568486  0.44158318  0.86665261    -0.83300
O222        O  0.19587381  0.38904678  0.66026690    -0.81620
C223        C  0.25841758  0.08443634  0.71229334     0.86550
O224        O  0.24629711  0.46675121  0.67568349    -0.88760
O225        O  0.32066890  0.49734897  0.71859899    -0.88860
O226        O  0.31649158  0.43026061  0.73770721    -0.75920
Mg227      Mg  0.24299023  0.09281357  0.79629340     1.57970
O228        O  0.36112805  0.08944468  0.80652647    -0.83290
H229        H  0.13319696  0.03216544  0.74928928    -0.07020
O230        O  0.22342704  0.42722463  0.75455523    -0.88560
H231        H  0.25940526  0.38666617  0.78735963    -0.06840
H232        H  0.21274149  0.99923486  0.63286905    -0.07020
C233        C  0.24149073  0.41575106  0.78774869     0.86530
C234        C  0.16363925  0.03488384  0.76473363     0.87120
C235        C  0.21294529  0.48369720  0.66338141     0.87160
H236        H  0.36671630  0.46801820  0.75073420    -0.07000
O237        O  0.31950447  0.01313047  0.81330184    -0.76030
Mg238      Mg  0.25691692  0.40737413  0.70373970     1.58000
H239        H  0.28716118  0.50094574  0.86716572    -0.07020
C240        C  0.15332697  0.40747073  0.84837968     0.92150
O241        O  0.13878062  0.41073503  0.69352197    -0.83260
C242        C  0.15528893  0.39461997  0.66054202     0.92210
O243        O  0.19068103  0.11668288  0.83652385    -0.83240
Mg244      Mg  0.33692855  0.04890638  0.75340902     1.58180
O245        O  0.15226952  0.40694986  0.80745439    -0.81570
O246        O  0.33420791  0.05862162  0.63337750    -0.83270
O247        O  0.49547662  0.32210018  0.71939772    -0.88850
C248        C  0.48618480  0.21290361  0.66443647     0.87170
Mg249      Mg  0.04592592  0.34104747  0.75398082     1.58150
O250        O  0.42794435  0.21948135  0.75447827    -0.88590
O251        O  0.42881878  0.31401012  0.73871733    -0.75920
C252        C  0.09824961  0.16152013  0.85215293     0.92230
O253        O  0.06384971  0.26141092  0.67891467    -0.75730
O254        O  0.11701003  0.19436049  0.83770300    -0.83240
Mg255      Mg  0.00390310  0.29610099  0.65909213     1.57960
C256        C  0.41135451  0.14795789  0.84832613     0.92150
O257        O  0.44250003  0.33814899  0.64548616    -0.81500
H258        H  0.38398893  0.25198651  0.78602149    -0.06840
C259        C  0.03714794  0.16453433  0.76377270     0.87090
O260        O  0.01122762  0.32122631  0.81392693    -0.76010
O261        O  0.46932094  0.24565064  0.67803853    -0.88770
O262        O  0.41189379  0.14557203  0.80746586    -0.81580
C263        C  0.39780359  0.15179764  0.66143466     0.92260
C264        C  0.40163961  0.33869106  0.64786983     0.92120
Mg265      Mg  0.49597852  0.20411312  0.84094844     1.57950
O266        O  0.05738866  0.16205953  0.85454044    -0.81500
O267        O  0.43602675  0.23880420  0.82113332    -0.75750
O268        O  0.39541532  0.19265765  0.66197293    -0.81590
O269        O  0.05569913  0.33779178  0.63295018    -0.83300
O270        O  0.10446044  0.30755997  0.83806916    -0.81620
C271        C  0.41434608  0.23634518  0.78722761     0.86550
O272        O  0.03055449  0.25457085  0.82200772    -0.88760
O273        O  0.00439720  0.17812781  0.78063892    -0.88860
O274        O  0.07105362  0.18621570  0.76131743    -0.75920
Mg275      Mg  0.40900727  0.25406371  0.70402331     1.57970
O276        O  0.41225699  0.13303585  0.69427273    -0.83290
H277        H  0.46392584  0.36604732  0.75190474    -0.07020
O278        O  0.07192318  0.28074180  0.74556738    -0.88560
H279        H  0.11588628  0.24824002  0.71403193    -0.06840
H280        H  0.49803945  0.28610731  0.86596006    -0.07020
C281        C  0.08552733  0.26387746  0.71282119     0.86530
C282        C  0.46272380  0.33569312  0.73626126     0.87120
C283        C  0.01368558  0.28731779  0.83560547     0.87160
H284        H  0.03594361  0.13418144  0.74812691    -0.07000
O285        O  0.48864202  0.17899456  0.68611326    -0.76030
Mg286      Mg  0.09086594  0.24615842  0.79601601     1.58000
H287        H  0.00182723  0.21411425  0.63408000    -0.07020
C288        C  0.08853327  0.35224778  0.65171441     0.92150
O289        O  0.08761848  0.36718574  0.80577587    -0.83260
C290        C  0.10207410  0.34841987  0.83861115     0.92210
O291        O  0.38287409  0.30585544  0.66232372    -0.83240
Mg292      Mg  0.45394760  0.15917654  0.74606156     1.58180
O293        O  0.08798474  0.35464183  0.69257450    -0.81570
O294        O  0.44419051  0.16241420  0.86708617    -0.83270
O295        O  0.24720899  0.28152422  0.57072307    -0.88850
C296        C  0.23354543  0.33673212  0.96299925     0.87170
Mg297      Mg  0.29877066  0.24672072  0.58698601     1.58150
O298        O  0.17707382  0.24556271  0.97348945    -0.88590
O299        O  0.18012338  0.26240541  0.56655179    -0.75920
C300        C  0.34744914  0.14852277  0.90831365     0.92230
O301        O  0.31206902  0.32144065  0.50777752    -0.75730
O302        O  0.36651997  0.16358878  0.94074760    -0.83240
Mg303      Mg  0.25389012  0.34214809  0.54533543     1.57960
C304        C  0.15731327  0.15173866  0.90339366     0.92150
O305        O  0.19327059  0.35651661  0.59053448    -0.81500
H306        H  0.13650907  0.21276356  0.50946632    -0.06840
C307        C  0.28472576  0.23537524  0.91369589     0.87090
O308        O  0.26299344  0.18682765  0.56957546    -0.76010
O309        O  0.21659970  0.32443464  0.99635395    -0.88770
O310        O  0.15679613  0.19266371  0.90233462    -0.81580
C311        C  0.14446172  0.33958088  0.90535416     0.92260
C312        C  0.15244132  0.35167226  0.59172446     0.92120
Mg313      Mg  0.24599693  0.15805477  0.95469009     1.57950
O314        O  0.30661965  0.14367985  0.90949737    -0.81500
O315        O  0.18781363  0.17876119  0.99224196    -0.75750
O316        O  0.13889019  0.33985164  0.94593939    -0.81590
O317        O  0.30846996  0.36674766  0.58426643    -0.83300
O318        O  0.36099116  0.16034899  0.55409755    -0.81620
C319        C  0.16559556  0.21237078  0.99155323     0.86550
O320        O  0.28328306  0.17576811  0.50367552    -0.88760
O321        O  0.25268065  0.21867933  0.92930180    -0.88860
O322        O  0.31976769  0.23779076  0.93347457    -0.75920
Mg323      Mg  0.15722492  0.29637555  0.50698131     1.57970
O324        O  0.16057637  0.30660213  0.88884315    -0.83290
H325        H  0.21788794  0.24938271  0.61677360    -0.07020
O326        O  0.32281057  0.25464042  0.52653461    -0.88560
H327        H  0.36337109  0.28743630  0.99054985    -0.06840
H328        H  0.25079393  0.13296571  0.53723545    -0.07020
C329        C  0.33428672  0.28783076  0.50846630     0.86530
C330        C  0.21516575  0.26482458  0.58632934     0.87120
C331        C  0.26633598  0.16347418  0.53703085     0.87160
H332        H  0.28200627  0.25081601  0.88325082    -0.07000
O333        O  0.23689422  0.31337939  0.93045487    -0.76030
Mg334      Mg  0.34265967  0.20382376  0.99305074     1.58000
H335        H  0.24908308  0.36724282  0.96279604    -0.07020
C336        C  0.34258350  0.34847072  0.59662199     0.92150
O337        O  0.33931126  0.19360725  0.61118946    -0.83260
C338        C  0.35542313  0.16062495  0.59468329     0.92210
O339        O  0.13336573  0.33660871  0.55929171    -0.83240
Mg340      Mg  0.20112019  0.25348735  0.91303980     1.58180
O341        O  0.34310130  0.30754539  0.59768161    -0.81570
O342        O  0.19142424  0.13345969  0.91575237    -0.83270
O343        O  0.07429068  0.00376881  0.96667302    -0.88850
C344        C  0.46222110  0.00857376  0.91568832     0.87170
Mg345      Mg  0.09200915  0.45478541  0.50396406     1.58150
O346        O  0.46853655  0.07081898  0.50276977    -0.88590
O347        O  0.06323643  0.06966499  0.98697282    -0.75920
C348        C  0.41047922  0.40544259  0.60549361     0.92230
O349        O  0.01226465  0.43358028  0.93020138    -0.75730
O350        O  0.44345985  0.38893453  0.58937813    -0.83240
Mg351      Mg  0.04623205  0.49315143  0.90730595     1.57960
C352        C  0.39838036  0.09181064  0.59753472     0.92150
O353        O  0.08969464  0.05418768  0.88896466    -0.81500
H354        H  0.00067857  0.11686379  0.53209186    -0.06840
C355        C  0.41333037  0.46310824  0.51643211     0.87090
O356        O  0.07130528  0.49233862  0.56214512    -0.76010
O357        O  0.49541302  0.02663741  0.92716249    -0.88770
O358        O  0.39353964  0.09062652  0.55670582    -0.81580
C359        C  0.40158556  0.09672020  0.90739688     0.92260
C360        C  0.08942316  0.09477158  0.89453651     0.92120
Mg361      Mg  0.45368017  0.00706859  0.59274925     1.57950
O362        O  0.41020952  0.44602611  0.61107415    -0.81500
O363        O  0.48765065  0.06664155  0.56985632    -0.75750
O364        O  0.44251117  0.09778485  0.90688043    -0.81590
O365        O  0.08646011  0.44084305  0.88344048    -0.83300
O366        O  0.05739611  0.40242997  0.59316621    -0.81620
C367        C  0.48523548  0.08642119  0.53481342     0.86550
O368        O  0.00450454  0.47358479  0.57289850    -0.88760
O369        O  0.42563318  0.49645729  0.53337912    -0.88860
O370        O  0.43668232  0.43056372  0.51307325    -0.75920
Mg371      Mg  0.00333819  0.08708381  0.95120519     1.57970
O372        O  0.38330899  0.08436527  0.94151114    -0.83290
H373        H  0.11710305  0.03731991  0.49915275    -0.07020
O374        O  0.03138078  0.42941275  0.99728595    -0.88560
H375        H  0.49924576  0.38335946  0.96797030    -0.06840
H376        H  0.03729699  0.00955772  0.61344995    -0.07020
C377        C  0.01468418  0.41380404  0.96524509     0.86530
C378        C  0.08658987  0.03712032  0.98361902     0.87120
C379        C  0.03769800  0.49164962  0.58436859     0.87160
H380        H  0.38281618  0.46291166  0.00090042    -0.07000
O381        O  0.42861340  0.00788300  0.93790990    -0.76030
Mg382      Mg  0.49657587  0.41314165  0.54884299     1.58000
H383        H  0.46262457  0.49066516  0.88660764    -0.07020
C384        C  0.10152158  0.40840605  0.90251392     0.92150
O385        O  0.11660201  0.41584551  0.55853967    -0.83260
C386        C  0.09832136  0.40348757  0.59265075     0.92210
O387        O  0.05644596  0.11128189  0.91065618    -0.83240
Mg388      Mg  0.40791023  0.04543578  0.99608910     1.58180
O389        O  0.10637014  0.40959074  0.94334260    -0.81570
O390        O  0.41344436  0.05937561  0.61660978    -0.83270
C391        C  0.37514630  0.37465441  0.62458035    -0.03000
C392        C  0.37539612  0.12466792  0.87482743    -0.03000
C393        C  0.12536814  0.37491224  0.87456998    -0.03000
C394        C  0.12475005  0.12555572  0.87543774    -0.03000
C395        C  0.37452043  0.12529850  0.62547316    -0.03000
C396        C  0.12450144  0.37552861  0.62521570    -0.03000
O397        O  0.17924901  0.50283722  0.28143062    -0.88850
C398        C  0.28696486  0.51648419  0.33665399     0.87170
Mg399      Mg  0.16297308  0.95127902  0.24662941     1.58150
O400        O  0.27648859  0.57295544  0.24548451    -0.88590
O401        O  0.18342580  0.56992451  0.26232098    -0.75920
C402        C  0.34164844  0.90259232  0.14843765     0.92230
O403        O  0.24216986  0.93797209  0.32135614    -0.75730
O404        O  0.30921267  0.88351788  0.16350003    -0.83240
Mg405      Mg  0.20461728  0.99615575  0.34205933     1.57960
C406        C  0.34657259  0.59272851  0.15165897     0.92150
O407        O  0.15943049  0.55678260  0.35642365    -0.81500
H408        H  0.24051341  0.61352237  0.21268780    -0.06840
C409        C  0.33626492  0.96530285  0.23529507     0.87090
O410        O  0.18039230  0.98705102  0.18673313    -0.76010
O411        O  0.25361501  0.53343732  0.32435484    -0.88770
O412        O  0.34763945  0.59323457  0.19258473    -0.81580
C413        C  0.34462173  0.60556414  0.33950320     0.92260
C414        C  0.15824891  0.59761248  0.35158242     0.92120
Mg415      Mg  0.29528134  0.50404048  0.15797408     1.57950
O416        O  0.34046523  0.94342163  0.14359790    -0.81500
O417        O  0.25772977  0.56221774  0.17868550    -0.75750
O418        O  0.30403718  0.61114040  0.33976962    -0.81590
O419        O  0.16567828  0.94158399  0.36665367    -0.83300
O420        O  0.19586692  0.88904808  0.16026671    -0.81620
C421        C  0.25842407  0.58443522  0.21229387     0.86550
O422        O  0.24629077  0.96675245  0.17568421    -0.88760
O423        O  0.32066252  0.99735011  0.21859990    -0.88860
O424        O  0.31648406  0.93026194  0.23770882    -0.75920
Mg425      Mg  0.24299753  0.59281275  0.29629325     1.57970
O426        O  0.36113513  0.58944143  0.30652895    -0.83290
H427        H  0.13320486  0.53216421  0.24928741    -0.07020
O428        O  0.22341966  0.92722621  0.25455554    -0.88560
H429        H  0.25939725  0.88666683  0.28735950    -0.06840
H430        H  0.21274705  0.49923274  0.13286823    -0.07020
C431        C  0.24148320  0.91575201  0.28774887     0.86530
C432        C  0.16364684  0.53488264  0.26473235     0.87120
C433        C  0.21293928  0.98369912  0.16338211     0.87160
H434        H  0.36670881  0.96801922  0.25073665    -0.07000
O435        O  0.31951083  0.51312805  0.31330157    -0.76030
Mg436      Mg  0.25690968  0.90737531  0.20374056     1.58000
H437        H  0.28715488  0.00094695  0.36716576    -0.07020
C438        C  0.15332100  0.90747195  0.34837967     0.92150
O439        O  0.13877335  0.91073818  0.19351985    -0.83260
C440        C  0.15528209  0.89462195  0.16054060     0.92210
O441        O  0.19068826  0.61668307  0.33652254    -0.83240
Mg442      Mg  0.33693515  0.54890433  0.25340932     1.58180
O443        O  0.15226300  0.90695234  0.30745433    -0.81570
O444        O  0.33421258  0.55862165  0.13337673    -0.83270
O445        O  0.49547339  0.82209939  0.21939869    -0.88850
C446        C  0.48618248  0.71290469  0.16443651     0.87170
Mg447      Mg  0.04592297  0.84104637  0.25398065     1.58150
O448        O  0.42794598  0.71948109  0.25448041    -0.88590
O449        O  0.42881626  0.81400990  0.23872045    -0.75920
C450        C  0.09825533  0.66152047  0.35215039     0.92230
O451        O  0.06384609  0.76141151  0.17891329    -0.75730
O452        O  0.11701476  0.69436118  0.33769997    -0.83240
Mg453      Mg  0.00389850  0.79610124  0.15909281     1.57960
C454        C  0.41136032  0.64795684  0.34832721     0.92150
O455        O  0.44249442  0.83814867  0.14548891    -0.81500
H456        H  0.38399123  0.75198507  0.28602577    -0.06840
C457        C  0.03715079  0.66453396  0.26377162     0.87090
O458        O  0.01122645  0.82122410  0.31392713    -0.76010
O459        O  0.46931775  0.74565098  0.17803930    -0.88770
O460        O  0.41189838  0.64557134  0.30746693    -0.81580
C461        C  0.39780488  0.65179888  0.16143657     0.92260
C462        C  0.40163401  0.83869034  0.14787340     0.92120
Mg463      Mg  0.49598320  0.70411185  0.34094848     1.57950
O464        O  0.05739439  0.66205899  0.35453861    -0.81500
O465        O  0.43603024  0.73880239  0.32113567    -0.75750
O466        O  0.39541404  0.69265860  0.16197583    -0.81590
O467        O  0.05569348  0.83779185  0.13295051    -0.83300
O468        O  0.10446082  0.80755896  0.33806729    -0.81620
C469        C  0.41434859  0.73634405  0.28723055     0.86550
O470        O  0.03055734  0.75456976  0.32200764    -0.88760
O471        O  0.00440053  0.67812770  0.28063851    -0.88860
O472        O  0.07105633  0.68621536  0.26131529    -0.75920
Mg473      Mg  0.40900513  0.75406348  0.20402673     1.57970
O474        O  0.41225988  0.63303702  0.19427384    -0.83290
H475        H  0.46392383  0.86604725  0.25190595    -0.07020
O476        O  0.07192151  0.78074142  0.24556604    -0.88560
H477        H  0.11588386  0.74824051  0.21402870    -0.06840
H478        H  0.49804231  0.78610478  0.36596104    -0.07020
C479        C  0.08552474  0.76387767  0.21281917     0.86530
C480        C  0.46272118  0.83569282  0.23626296     0.87120
C481        C  0.01368729  0.78731593  0.33560587     0.87160
H482        H  0.03594605  0.63418092  0.24812616    -0.07000
O483        O  0.48864278  0.67899597  0.18611343    -0.76030
Mg484      Mg  0.09086783  0.74615830  0.29601362     1.58000
H485        H  0.00182344  0.71411602  0.13407930    -0.07020
C486        C  0.08852793  0.85224804  0.15171391     0.92150
O487        O  0.08761492  0.86718425  0.30577518    -0.83260
C488        C  0.10207186  0.84841858  0.33860991     0.92210
O489        O  0.38286913  0.80585459  0.16232785    -0.83240
Mg490      Mg  0.45395044  0.65917695  0.24606220     1.58180
O491        O  0.08798046  0.85464196  0.19257401    -0.81570
O492        O  0.44419680  0.66241285  0.36708649    -0.83270
O493        O  0.24720579  0.78152195  0.07072243    -0.88850
C494        C  0.23354293  0.83673545  0.46300072     0.87170
Mg495      Mg  0.29876811  0.74671863  0.08698668     1.58150
O496        O  0.17707439  0.74556389  0.47348770    -0.88590
O497        O  0.18011994  0.76240466  0.06655078    -0.75920
C498        C  0.34745505  0.64852310  0.40831453     0.92230
O499        O  0.31206599  0.82144067  0.00777988    -0.75730
O500        O  0.36652507  0.66358952  0.44074884    -0.83240
Mg501      Mg  0.25388619  0.84214713  0.04533727     1.57960
C502        C  0.15731953  0.65174106  0.40339065     0.92150
O503        O  0.19326545  0.85651597  0.09053520    -0.81500
H504        H  0.13651118  0.71276233  0.00946404    -0.06840
C505        C  0.28473018  0.73537876  0.41369664     0.87090
O506        O  0.26299333  0.68682512  0.06957388    -0.76010
O507        O  0.21659665  0.82443627  0.49635452    -0.88770
O508        O  0.15680155  0.69266606  0.40233149    -0.81580
C509        C  0.14445923  0.83958142  0.40535330     0.92260
C510        C  0.15243605  0.85167219  0.09172395     0.92120
Mg511      Mg  0.24600160  0.65805715  0.45468827     1.57950
O512        O  0.30662538  0.64368136  0.40949692    -0.81500
O513        O  0.18781736  0.67876257  0.49223946    -0.75750
O514        O  0.13888698  0.83985153  0.44593845    -0.81590
O515        O  0.30846440  0.86674532  0.08426966    -0.83300
O516        O  0.36099423  0.66034987  0.05409891    -0.81620
C517        C  0.16559773  0.71237115  0.49155103     0.86550
O518        O  0.28328662  0.67576835  0.00367472    -0.88760
O519        O  0.25268472  0.71868295  0.42930188    -0.88860
O520        O  0.31977215  0.73779257  0.43347544    -0.75920
Mg521      Mg  0.15722238  0.79637546  0.00698024     1.57970
O522        O  0.16057653  0.80660394  0.38884227    -0.83290
H523        H  0.21788424  0.74937996  0.11677229    -0.07020
O524        O  0.32281108  0.75464061  0.02653628    -0.88560
H525        H  0.36336972  0.78743906  0.49055176    -0.06840
H526        H  0.25079835  0.63296327  0.03723206    -0.07020
C527        C  0.33428537  0.78783183  0.00846830     0.86530
C528        C  0.21516236  0.76482249  0.08632834     0.87120
C529        C  0.26633885  0.66347254  0.03702899     0.87160
H530        H  0.28201118  0.75082048  0.38325201    -0.07000
O531        O  0.23689444  0.81338348  0.43045607    -0.76030
Mg532      Mg  0.34266302  0.70382481  0.49305185     1.58000
H533        H  0.24907904  0.86724694  0.46279881    -0.07020
C534        C  0.34257782  0.84846871  0.09662570     0.92150
O535        O  0.33931080  0.69360628  0.11119066    -0.83260
C536        C  0.35542510  0.66062510  0.09468454     0.92210
O537        O  0.13336138  0.83660811  0.05929083    -0.83240
Mg538      Mg  0.20112314  0.75349057  0.41303894     1.58180
O539        O  0.34309640  0.80754348  0.09768515    -0.81570
O540        O  0.19143055  0.63346266  0.41574970    -0.83270
O541        O  0.07430392  0.50377309  0.46667522    -0.88850
C542        C  0.46223235  0.50857659  0.41569301     0.87170
Mg543      Mg  0.09199803  0.95478184  0.00396124     1.58150
O544        O  0.46854641  0.57082397  0.00277389    -0.88590
O545        O  0.06324711  0.56966911  0.48697528    -0.75920
C546        C  0.41047188  0.90544023  0.10549466     0.92230
O547        O  0.01225343  0.93357744  0.43019757    -0.75730
O548        O  0.44345188  0.88893158  0.08937861    -0.83240
Mg549      Mg  0.04622214  0.99314844  0.40730257     1.57960
C550        C  0.39838618  0.59181293  0.09753688     0.92150
O551        O  0.08970264  0.55418978  0.38896545    -0.81500
H552        H  0.00068879  0.61686811  0.03209680    -0.06840
C553        C  0.41331915  0.96310344  0.01642975     0.87090
O554        O  0.07129445  0.99233456  0.06214228    -0.76010
O555        O  0.49542394  0.52664000  0.42716807    -0.88770
O556        O  0.39354708  0.59062925  0.05670792    -0.81580
C557        C  0.40159309  0.59672107  0.40739988     0.92260
C558        C  0.08943106  0.59477364  0.39453645     0.92120
Mg559      Mg  0.45368909  0.50707214  0.09275284     1.57950
O560        O  0.41020188  0.94602385  0.11107349    -0.81500
O561        O  0.48765971  0.56664581  0.06986088    -0.75750
O562        O  0.44251886  0.59778608  0.40688343    -0.81590
O563        O  0.08645182  0.94084023  0.38343873    -0.83300
O564        O  0.05738825  0.90242726  0.09316348    -0.81620
C565        C  0.48524531  0.58642566  0.03481794     0.86550
O566        O  0.00449396  0.97358059  0.07289404    -0.88760
O567        O  0.42562173  0.99645294  0.03337623    -0.88860
O568        O  0.43667105  0.93055863  0.01307199    -0.75920
Mg569      Mg  0.00334775  0.58708721  0.45120814     1.57970
O570        O  0.38331691  0.58436729  0.44151469    -0.83290
H571        H  0.11711478  0.53732572  0.99915547    -0.07020
O572        O  0.03136993  0.92940705  0.49728231    -0.88560
H573        H  0.49923245  0.88335623  0.46796532    -0.06840
H574        H  0.03730838  0.50956321  0.11345274    -0.07020
C575        C  0.01467227  0.91380019  0.46524091     0.86530
C576        C  0.08660170  0.53712509  0.48362150     0.87120
C577        C  0.03768708  0.99164495  0.08436532     0.87160
H578        H  0.38280501  0.96290643  0.50089794    -0.07000
O579        O  0.42862416  0.50788629  0.43791366    -0.76030
Mg580      Mg  0.49656600  0.91313700  0.04884073     1.58000
H581        H  0.46261270  0.99066236  0.38660290    -0.07020
C582        C  0.10151425  0.90840376  0.40251229     0.92150
O583        O  0.11659369  0.91584331  0.05853659    -0.83260
C584        C  0.09831362  0.90348597  0.09264814     0.92210
O585        O  0.05645459  0.61128424  0.41065728    -0.83240
Mg586      Mg  0.40792028  0.54543914  0.49609235     1.58180
O587        O  0.10636131  0.90958806  0.44334097    -0.81570
O588        O  0.41345085  0.55937827  0.11661211    -0.83270
C589        C  0.37513997  0.87465296  0.12458359    -0.03000
C590        C  0.37540268  0.62466714  0.37482929    -0.03000
C591        C  0.12536372  0.87491172  0.37456908    -0.03000
C592        C  0.12475683  0.62555709  0.37543555    -0.03000
C593        C  0.37452368  0.62529935  0.12547455    -0.03000
C594        C  0.12449511  0.87552905  0.12521430    -0.03000
O595        O  0.17924902  0.50283723  0.78143062    -0.88850
C596        C  0.28696486  0.51648419  0.83665399     0.87170
Mg597      Mg  0.16297308  0.95127902  0.74662941     1.58150
O598        O  0.27648859  0.57295544  0.74548451    -0.88590
O599        O  0.18342580  0.56992451  0.76232098    -0.75920
C600        C  0.34164844  0.90259231  0.64843765     0.92230
O601        O  0.24216985  0.93797209  0.82135614    -0.75730
O602        O  0.30921267  0.88351787  0.66350003    -0.83240
Mg603      Mg  0.20461728  0.99615575  0.84205933     1.57960
C604        C  0.34657260  0.59272850  0.65165897     0.92150
O605        O  0.15943049  0.55678261  0.85642365    -0.81500
H606        H  0.24051341  0.61352237  0.71268780    -0.06840
C607        C  0.33626492  0.96530284  0.73529507     0.87090
O608        O  0.18039231  0.98705102  0.68673313    -0.76010
O609        O  0.25361501  0.53343732  0.82435484    -0.88770
O610        O  0.34763945  0.59323457  0.69258473    -0.81580
C611        C  0.34462173  0.60556415  0.83950320     0.92260
C612        C  0.15824891  0.59761249  0.85158242     0.92120
Mg613      Mg  0.29528134  0.50404047  0.65797408     1.57950
O614        O  0.34046523  0.94342162  0.64359790    -0.81500
O615        O  0.25772978  0.56221774  0.67868550    -0.75750
O616        O  0.30403718  0.61114040  0.83976962    -0.81590
O617        O  0.16567828  0.94158400  0.86665367    -0.83300
O618        O  0.19586692  0.88904807  0.66026671    -0.81620
C619        C  0.25842407  0.58443522  0.71229387     0.86550
O620        O  0.24629078  0.96675245  0.67568421    -0.88760
O621        O  0.32066252  0.99735010  0.71859990    -0.88860
O622        O  0.31648406  0.93026194  0.73770883    -0.75920
Mg623      Mg  0.24299752  0.59281276  0.79629325     1.57970
O624        O  0.36113512  0.58944143  0.80652895    -0.83290
H625        H  0.13320486  0.53216421  0.74928741    -0.07020
O626        O  0.22341965  0.92722621  0.75455554    -0.88560
H627        H  0.25939725  0.88666682  0.78735950    -0.06840
H628        H  0.21274706  0.49923274  0.63286823    -0.07020
C629        C  0.24148320  0.91575201  0.78774887     0.86530
C630        C  0.16364684  0.53488264  0.76473236     0.87120
C631        C  0.21293928  0.98369911  0.66338211     0.87160
H632        H  0.36670881  0.96801921  0.75073665    -0.07000
O633        O  0.31951083  0.51312806  0.81330158    -0.76030
Mg634      Mg  0.25690968  0.90737531  0.70374056     1.58000
H635        H  0.28715487  0.00094695  0.86716576    -0.07020
C636        C  0.15332099  0.90747196  0.84837967     0.92150
O637        O  0.13877335  0.91073818  0.69351985    -0.83260
C638        C  0.15528209  0.89462194  0.66054060     0.92210
O639        O  0.19068826  0.61668307  0.83652254    -0.83240
Mg640      Mg  0.33693515  0.54890433  0.75340933     1.58180
O641        O  0.15226300  0.90695234  0.80745433    -0.81570
O642        O  0.33421258  0.55862165  0.63337673    -0.83270
O643        O  0.49547339  0.82209939  0.71939869    -0.88850
C644        C  0.48618248  0.71290468  0.66443651     0.87170
Mg645      Mg  0.04592296  0.84104637  0.75398066     1.58150
O646        O  0.42794598  0.71948109  0.75448041    -0.88590
O647        O  0.42881626  0.81400990  0.73872045    -0.75920
C648        C  0.09825533  0.66152047  0.85215040     0.92230
O649        O  0.06384610  0.76141151  0.67891329    -0.75730
O650        O  0.11701476  0.69436119  0.83769998    -0.83240
Mg651      Mg  0.00389850  0.79610123  0.65909281     1.57960
C652        C  0.41136032  0.64795685  0.84832721     0.92150
O653        O  0.44249442  0.83814867  0.64548891    -0.81500
H654        H  0.38399123  0.75198507  0.78602577    -0.06840
C655        C  0.03715080  0.66453395  0.76377163     0.87090
O656        O  0.01122645  0.82122410  0.81392714    -0.76010
O657        O  0.46931775  0.74565098  0.67803930    -0.88770
O658        O  0.41189838  0.64557134  0.80746694    -0.81580
C659        C  0.39780489  0.65179888  0.66143657     0.92260
C660        C  0.40163401  0.83869033  0.64787340     0.92120
Mg661      Mg  0.49598320  0.70411185  0.84094849     1.57950
O662        O  0.05739438  0.66205899  0.85453862    -0.81500
O663        O  0.43603024  0.73880239  0.82113567    -0.75750
O664        O  0.39541404  0.69265860  0.66197583    -0.81590
O665        O  0.05569348  0.83779184  0.63295051    -0.83300
O666        O  0.10446081  0.80755896  0.83806729    -0.81620
C667        C  0.41434859  0.73634405  0.78723055     0.86550
O668        O  0.03055734  0.75456976  0.82200764    -0.88760
O669        O  0.00440053  0.67812770  0.78063852    -0.88860
O670        O  0.07105633  0.68621536  0.76131530    -0.75920
Mg671      Mg  0.40900513  0.75406348  0.70402673     1.57970
O672        O  0.41225989  0.63303702  0.69427384    -0.83290
H673        H  0.46392383  0.86604724  0.75190595    -0.07020
O674        O  0.07192151  0.78074142  0.74556605    -0.88560
H675        H  0.11588387  0.74824051  0.71402871    -0.06840
H676        H  0.49804231  0.78610478  0.86596104    -0.07020
C677        C  0.08552474  0.76387767  0.71281918     0.86530
C678        C  0.46272118  0.83569282  0.73626295     0.87120
C679        C  0.01368729  0.78731593  0.83560587     0.87160
H680        H  0.03594606  0.63418092  0.74812617    -0.07000
O681        O  0.48864278  0.67899597  0.68611343    -0.76030
Mg682      Mg  0.09086783  0.74615830  0.79601362     1.58000
H683        H  0.00182345  0.71411601  0.63407931    -0.07020
C684        C  0.08852793  0.85224804  0.65171391     0.92150
O685        O  0.08761492  0.86718425  0.80577518    -0.83260
C686        C  0.10207186  0.84841859  0.83860991     0.92210
O687        O  0.38286913  0.80585458  0.66232785    -0.83240
Mg688      Mg  0.45395044  0.65917694  0.74606220     1.58180
O689        O  0.08798046  0.85464195  0.69257401    -0.81570
O690        O  0.44419680  0.66241285  0.86708649    -0.83270
O691        O  0.24720578  0.78152194  0.57072243    -0.88850
C692        C  0.23354293  0.83673545  0.96300072     0.87170
Mg693      Mg  0.29876811  0.74671862  0.58698668     1.58150
O694        O  0.17707440  0.74556390  0.97348770    -0.88590
O695        O  0.18011994  0.76240465  0.56655078    -0.75920
C696        C  0.34745505  0.64852310  0.90831453     0.92230
O697        O  0.31206599  0.82144067  0.50777988    -0.75730
O698        O  0.36652507  0.66358952  0.94074883    -0.83240
Mg699      Mg  0.25388618  0.84214712  0.54533727     1.57960
C700        C  0.15731953  0.65174106  0.90339065     0.92150
O701        O  0.19326545  0.85651596  0.59053520    -0.81500
H702        H  0.13651118  0.71276232  0.50946404    -0.06840
C703        C  0.28473018  0.73537877  0.91369664     0.87090
O704        O  0.26299333  0.68682511  0.56957388    -0.76010
O705        O  0.21659665  0.82443627  0.99635452    -0.88770
O706        O  0.15680155  0.69266606  0.90233149    -0.81580
C707        C  0.14445922  0.83958142  0.90535331     0.92260
C708        C  0.15243605  0.85167218  0.59172395     0.92120
Mg709      Mg  0.24600160  0.65805715  0.95468827     1.57950
O710        O  0.30662538  0.64368137  0.90949692    -0.81500
O711        O  0.18781736  0.67876258  0.99223947    -0.75750
O712        O  0.13888698  0.83985153  0.94593845    -0.81590
O713        O  0.30846440  0.86674531  0.58426966    -0.83300
O714        O  0.36099423  0.66034986  0.55409892    -0.81620
C715        C  0.16559774  0.71237116  0.99155103     0.86550
O716        O  0.28328662  0.67576834  0.50367472    -0.88760
O717        O  0.25268472  0.71868296  0.92930188    -0.88860
O718        O  0.31977215  0.73779257  0.93347544    -0.75920
Mg719      Mg  0.15722238  0.79637546  0.50698024     1.57970
O720        O  0.16057653  0.80660394  0.88884227    -0.83290
H721        H  0.21788423  0.74937995  0.61677228    -0.07020
O722        O  0.32281108  0.75464060  0.52653628    -0.88560
H723        H  0.36336972  0.78743907  0.99055176    -0.06840
H724        H  0.25079835  0.63296326  0.53723206    -0.07020
C725        C  0.33428537  0.78783182  0.50846830     0.86530
C726        C  0.21516235  0.76482248  0.58632834     0.87120
C727        C  0.26633885  0.66347253  0.53702899     0.87160
H728        H  0.28201118  0.75082049  0.88325201    -0.07000
O729        O  0.23689444  0.81338349  0.93045607    -0.76030
Mg730      Mg  0.34266302  0.70382482  0.99305184     1.58000
H731        H  0.24907904  0.86724695  0.96279881    -0.07020
C732        C  0.34257781  0.84846870  0.59662571     0.92150
O733        O  0.33931080  0.69360628  0.61119067    -0.83260
C734        C  0.35542510  0.66062510  0.59468454     0.92210
O735        O  0.13336138  0.83660810  0.55929083    -0.83240
Mg736      Mg  0.20112314  0.75349057  0.91303894     1.58180
O737        O  0.34309640  0.80754347  0.59768515    -0.81570
O738        O  0.19143055  0.63346266  0.91574970    -0.83270
O739        O  0.07430392  0.50377309  0.96667521    -0.88850
C740        C  0.46223234  0.50857659  0.91569300     0.87170
Mg741      Mg  0.09199803  0.95478183  0.50396124     1.58150
O742        O  0.46854641  0.57082397  0.50277390    -0.88590
O743        O  0.06324711  0.56966911  0.98697528    -0.75920
C744        C  0.41047187  0.90544022  0.60549466     0.92230
O745        O  0.01225343  0.93357745  0.93019758    -0.75730
O746        O  0.44345188  0.88893157  0.58937860    -0.83240
Mg747      Mg  0.04622214  0.99314845  0.90730257     1.57960
C748        C  0.39838619  0.59181293  0.59753688     0.92150
O749        O  0.08970264  0.55418979  0.88896545    -0.81500
H750        H  0.00068880  0.61686811  0.53209680    -0.06840
C751        C  0.41331915  0.96310343  0.51642974     0.87090
O752        O  0.07129445  0.99233455  0.56214227    -0.76010
O753        O  0.49542394  0.52664000  0.92716807    -0.88770
O754        O  0.39354708  0.59062925  0.55670792    -0.81580
C755        C  0.40159309  0.59672107  0.90739988     0.92260
C756        C  0.08943105  0.59477364  0.89453645     0.92120
Mg757      Mg  0.45368910  0.50707214  0.59275285     1.57950
O758        O  0.41020187  0.94602384  0.61107349    -0.81500
O759        O  0.48765971  0.56664581  0.56986089    -0.75750
O760        O  0.44251886  0.59778608  0.90688343    -0.81590
O761        O  0.08645182  0.94084023  0.88343874    -0.83300
O762        O  0.05738825  0.90242725  0.59316348    -0.81620
C763        C  0.48524531  0.58642566  0.53481795     0.86550
O764        O  0.00449396  0.97358058  0.57289403    -0.88760
O765        O  0.42562173  0.99645293  0.53337623    -0.88860
O766        O  0.43667105  0.93055862  0.51307199    -0.75920
Mg767      Mg  0.00334775  0.58708721  0.95120814     1.57970
O768        O  0.38331691  0.58436729  0.94151469    -0.83290
H769        H  0.11711478  0.53732572  0.49915547    -0.07020
O770        O  0.03136993  0.92940706  0.99728231    -0.88560
H771        H  0.49923245  0.88335624  0.96796532    -0.06840
H772        H  0.03730839  0.50956321  0.61345274    -0.07020
C773        C  0.01467227  0.91380020  0.96524092     0.86530
C774        C  0.08660169  0.53712509  0.98362150     0.87120
C775        C  0.03768708  0.99164494  0.58436532     0.87160
H776        H  0.38280501  0.96290644  0.00089794    -0.07000
O777        O  0.42862416  0.50788629  0.93791366    -0.76030
Mg778      Mg  0.49656600  0.91313699  0.54884073     1.58000
H779        H  0.46261270  0.99066237  0.88660291    -0.07020
C780        C  0.10151425  0.90840376  0.90251229     0.92150
O781        O  0.11659369  0.91584330  0.55853658    -0.83260
C782        C  0.09831362  0.90348597  0.59264814     0.92210
O783        O  0.05645459  0.61128424  0.91065728    -0.83240
Mg784      Mg  0.40792028  0.54543914  0.99609234     1.58180
O785        O  0.10636131  0.90958806  0.94334097    -0.81570
O786        O  0.41345085  0.55937827  0.61661211    -0.83270
C787        C  0.37513997  0.87465295  0.62458359    -0.03000
C788        C  0.37540268  0.62466715  0.87482929    -0.03000
C789        C  0.12536372  0.87491173  0.87456908    -0.03000
C790        C  0.12475683  0.62555710  0.87543555    -0.03000
C791        C  0.37452368  0.62529935  0.62547456    -0.03000
C792        C  0.12449511  0.87552904  0.62521430    -0.03000
O793        O  0.67924169  0.00283842  0.28143160    -0.88850
C794        C  0.78695828  0.01648556  0.33665410     0.87170
Mg795      Mg  0.66298017  0.45127692  0.24662953     1.58150
O796        O  0.77648160  0.07295671  0.24548425    -0.88590
O797        O  0.68341836  0.06992556  0.26232157    -0.75920
C798        C  0.84165478  0.40259301  0.14843499     0.92230
O799        O  0.74217678  0.43797141  0.32135580    -0.75730
O800        O  0.80921949  0.38351800  0.16349775    -0.83240
Mg801      Mg  0.70462387  0.49615526  0.34205852     1.57960
C802        C  0.84656812  0.09272912  0.15165854     0.92150
O803        O  0.65942401  0.05678211  0.35642535    -0.81500
H804        H  0.74050679  0.11352342  0.21268688    -0.06840
C805        C  0.83627207  0.46530168  0.23529332     0.87090
O806        O  0.68039837  0.48704858  0.18673257    -0.76010
O807        O  0.75360813  0.03343810  0.32435498    -0.88770
O808        O  0.84763403  0.09323674  0.19258426    -0.81580
C809        C  0.84461486  0.10556611  0.33950133     0.92260
C810        C  0.65824205  0.09761188  0.35158409     0.92120
Mg811      Mg  0.79527574  0.00404089  0.15797485     1.57950
O812        O  0.84047107  0.44342228  0.14359546    -0.81500
O813        O  0.75772423  0.06221885  0.17868497    -0.75750
O814        O  0.80403019  0.11114138  0.33976888    -0.81590
O815        O  0.66568487  0.44158317  0.36665261    -0.83300
O816        O  0.69587381  0.38904678  0.16026690    -0.81620
C817        C  0.75841758  0.08443635  0.21229334     0.86550
O818        O  0.74629711  0.46675121  0.17568350    -0.88760
O819        O  0.82066890  0.49734896  0.21859899    -0.88860
O820        O  0.81649158  0.43026061  0.23770721    -0.75920
Mg821      Mg  0.74299023  0.09281358  0.29629340     1.57970
O822        O  0.86112805  0.08944468  0.30652647    -0.83290
H823        H  0.63319695  0.03216544  0.24928929    -0.07020
O824        O  0.72342704  0.42722463  0.25455523    -0.88560
H825        H  0.75940526  0.38666616  0.28735963    -0.06840
H826        H  0.71274148  0.99923488  0.13286905    -0.07020
C827        C  0.74149073  0.41575106  0.28774869     0.86530
C828        C  0.66363924  0.03488384  0.26473364     0.87120
C829        C  0.71294529  0.48369720  0.16338141     0.87160
H830        H  0.86671630  0.46801820  0.25073419    -0.07000
O831        O  0.81950447  0.01313048  0.31330183    -0.76030
Mg832      Mg  0.75691691  0.40737413  0.20373970     1.58000
H833        H  0.78716119  0.50094573  0.36716572    -0.07020
C834        C  0.65332697  0.40747073  0.34837968     0.92150
O835        O  0.63878061  0.41073502  0.19352197    -0.83260
C836        C  0.65528893  0.39461997  0.16054203     0.92210
O837        O  0.69068103  0.11668288  0.33652385    -0.83240
Mg838      Mg  0.83692855  0.04890639  0.25340902     1.58180
O839        O  0.65226952  0.40694986  0.30745440    -0.81570
O840        O  0.83420791  0.05862162  0.13337750    -0.83270
O841        O  0.99547661  0.32210018  0.21939772    -0.88850
C842        C  0.98618480  0.21290362  0.16443647     0.87170
Mg843      Mg  0.54592592  0.34104747  0.25398082     1.58150
O844        O  0.92794434  0.21948136  0.25447828    -0.88590
O845        O  0.92881877  0.31401013  0.23871734    -0.75920
C846        C  0.59824961  0.16152013  0.35215294     0.92230
O847        O  0.56384970  0.26141092  0.17891467    -0.75730
O848        O  0.61701003  0.19436049  0.33770301    -0.83240
Mg849      Mg  0.50390309  0.29610100  0.15909214     1.57960
C850        C  0.91135451  0.14795789  0.34832613     0.92150
O851        O  0.94250002  0.33814899  0.14548617    -0.81500
H852        H  0.88398893  0.25198652  0.28602149    -0.06840
C853        C  0.53714794  0.16453433  0.26377270     0.87090
O854        O  0.51122762  0.32122631  0.31392693    -0.76010
O855        O  0.96932094  0.24565065  0.17803853    -0.88770
O856        O  0.91189379  0.14557203  0.30746586    -0.81580
C857        C  0.89780358  0.15179765  0.16143466     0.92260
C858        C  0.90163960  0.33869106  0.14786983     0.92120
Mg859      Mg  0.99597852  0.20411312  0.34094845     1.57950
O860        O  0.55738865  0.16205953  0.35454045    -0.81500
O861        O  0.93602675  0.23880420  0.32113333    -0.75750
O862        O  0.89541532  0.19265765  0.16197294    -0.81590
O863        O  0.55569912  0.33779179  0.13295019    -0.83300
O864        O  0.60446045  0.30755997  0.33806916    -0.81620
C865        C  0.91434608  0.23634518  0.28722762     0.86550
O866        O  0.53055449  0.25457085  0.32200773    -0.88760
O867        O  0.50439719  0.17812781  0.28063893    -0.88860
O868        O  0.57105362  0.18621570  0.26131744    -0.75920
Mg869      Mg  0.90900726  0.25406372  0.20402331     1.57970
O870        O  0.91225699  0.13303586  0.19427273    -0.83290
H871        H  0.96392584  0.36604733  0.25190474    -0.07020
O872        O  0.57192318  0.28074180  0.24556738    -0.88560
H873        H  0.61588627  0.24824002  0.21403193    -0.06840
H874        H  0.99803945  0.28610731  0.36596006    -0.07020
C875        C  0.58552732  0.26387746  0.21282119     0.86530
C876        C  0.96272380  0.33569313  0.23626127     0.87120
C877        C  0.51368558  0.28731779  0.33560547     0.87160
H878        H  0.53594361  0.13418144  0.24812692    -0.07000
O879        O  0.98864202  0.17899456  0.18611326    -0.76030
Mg880      Mg  0.59086594  0.24615842  0.29601602     1.58000
H881        H  0.50182722  0.21411425  0.13408001    -0.07020
C882        C  0.58853327  0.35224778  0.15171442     0.92150
O883        O  0.58761848  0.36718574  0.30577588    -0.83260
C884        C  0.60207410  0.34841986  0.33861115     0.92210
O885        O  0.88287408  0.30585544  0.16232372    -0.83240
Mg886      Mg  0.95394759  0.15917655  0.24606156     1.58180
O887        O  0.58798474  0.35464183  0.19257451    -0.81570
O888        O  0.94419051  0.16241420  0.36708618    -0.83270
O889        O  0.74720899  0.28152422  0.07072306    -0.88850
C890        C  0.73354543  0.33673212  0.46299925     0.87170
Mg891      Mg  0.79877066  0.24672072  0.08698601     1.58150
O892        O  0.67707383  0.24556271  0.47348945    -0.88590
O893        O  0.68012337  0.26240541  0.06655178    -0.75920
C894        C  0.84744914  0.14852277  0.40831365     0.92230
O895        O  0.81206902  0.32144065  0.00777752    -0.75730
O896        O  0.86651997  0.16358878  0.44074760    -0.83240
Mg897      Mg  0.75389011  0.34214810  0.04533543     1.57960
C898        C  0.65731327  0.15173866  0.40339367     0.92150
O899        O  0.69327058  0.35651661  0.09053448    -0.81500
H900        H  0.63650908  0.21276356  0.00946632    -0.06840
C901        C  0.78472577  0.23537523  0.41369589     0.87090
O902        O  0.76299344  0.18682765  0.06957545    -0.76010
O903        O  0.71659970  0.32443464  0.49635396    -0.88770
O904        O  0.65679613  0.19266371  0.40233463    -0.81580
C905        C  0.64446172  0.33958087  0.40535416     0.92260
C906        C  0.65244132  0.35167226  0.09172446     0.92120
Mg907      Mg  0.74599693  0.15805477  0.45469010     1.57950
O908        O  0.80661965  0.14367985  0.40949737    -0.81500
O909        O  0.68781363  0.17876119  0.49224197    -0.75750
O910        O  0.63889020  0.33985164  0.44593940    -0.81590
O911        O  0.80846995  0.36674766  0.08426643    -0.83300
O912        O  0.86099116  0.16034900  0.05409754    -0.81620
C913        C  0.66559556  0.21237077  0.49155324     0.86550
O914        O  0.78328306  0.17576811  0.00367551    -0.88760
O915        O  0.75268065  0.21867933  0.42930181    -0.88860
O916        O  0.81976769  0.23779076  0.43347457    -0.75920
Mg917      Mg  0.65722492  0.29637555  0.00698130     1.57970
O918        O  0.66057637  0.30660212  0.38884316    -0.83290
H919        H  0.71788794  0.24938271  0.11677359    -0.07020
O920        O  0.82281057  0.25464043  0.02653461    -0.88560
H921        H  0.86337110  0.28743630  0.49054985    -0.06840
H922        H  0.75079394  0.13296571  0.03723545    -0.07020
C923        C  0.83428672  0.28783077  0.00846630     0.86530
C924        C  0.71516575  0.26482458  0.08632933     0.87120
C925        C  0.76633599  0.16347419  0.03703084     0.87160
H926        H  0.78200627  0.25081601  0.38325082    -0.07000
O927        O  0.73689422  0.31337939  0.43045487    -0.76030
Mg928      Mg  0.84265967  0.20382375  0.49305074     1.58000
H929        H  0.74908309  0.36724282  0.46279604    -0.07020
C930        C  0.84258350  0.34847072  0.09662199     0.92150
O931        O  0.83931126  0.19360726  0.11118945    -0.83260
C932        C  0.85542313  0.16062496  0.09468328     0.92210
O933        O  0.63336573  0.33660871  0.05929171    -0.83240
Mg934      Mg  0.70112019  0.25348734  0.41303981     1.58180
O935        O  0.84310130  0.30754539  0.09768161    -0.81570
O936        O  0.69142424  0.13345968  0.41575237    -0.83270
O937        O  0.57429068  0.00376880  0.46667302    -0.88850
C938        C  0.96222110  0.00857376  0.41568831     0.87170
Mg939      Mg  0.59200915  0.45478541  0.00396406     1.58150
O940        O  0.96853655  0.07081899  0.00276977    -0.88590
O941        O  0.56323642  0.06966498  0.48697282    -0.75920
C942        C  0.91047921  0.40544259  0.10549361     0.92230
O943        O  0.51226466  0.43358028  0.43020139    -0.75730
O944        O  0.94345984  0.38893453  0.08937813    -0.83240
Mg945      Mg  0.54623206  0.49315143  0.40730596     1.57960
C946        C  0.89838036  0.09181065  0.09753472     0.92150
O947        O  0.58969464  0.05418768  0.38896466    -0.81500
H948        H  0.50067857  0.11686380  0.03209187    -0.06840
C949        C  0.91333036  0.46310824  0.01643210     0.87090
O950        O  0.57130527  0.49233862  0.06214512    -0.76010
O951        O  0.99541302  0.02663740  0.42716249    -0.88770
O952        O  0.89353965  0.09062653  0.05670582    -0.81580
C953        C  0.90158556  0.09672020  0.40739688     0.92260
C954        C  0.58942316  0.09477157  0.39453651     0.92120
Mg955      Mg  0.95368017  0.00706860  0.09274925     1.57950
O956        O  0.91020951  0.44602612  0.11107415    -0.81500
O957        O  0.98765065  0.06664156  0.06985632    -0.75750
O958        O  0.94251117  0.09778484  0.40688043    -0.81590
O959        O  0.58646012  0.44084305  0.38344049    -0.83300
O960        O  0.55739610  0.40242997  0.09316621    -0.81620
C961        C  0.98523549  0.08642120  0.03481343     0.86550
O962        O  0.50450454  0.47358480  0.07289849    -0.88760
O963        O  0.92563317  0.49645729  0.03337911    -0.88860
O964        O  0.93668231  0.43056372  0.01307324    -0.75920
Mg965      Mg  0.50333819  0.08708380  0.45120518     1.57970
O966        O  0.88330899  0.08436527  0.44151114    -0.83290
H967        H  0.61710305  0.03731992  0.99915275    -0.07020
O968        O  0.53138079  0.42941275  0.49728595    -0.88560
H969        H  0.99924576  0.38335946  0.46797031    -0.06840
H970        H  0.53729700  0.00955773  0.11344995    -0.07020
C971        C  0.51468419  0.41380404  0.46524509     0.86530
C972        C  0.58658986  0.03712031  0.48361902     0.87120
C973        C  0.53769800  0.49164962  0.08436859     0.87160
H974        H  0.88281618  0.46291165  0.50090042    -0.07000
O975        O  0.92861340  0.00788299  0.43790990    -0.76030
Mg976      Mg  0.99657586  0.41314165  0.04884299     1.58000
H977        H  0.96262457  0.49066516  0.38660764    -0.07020
C978        C  0.60152159  0.40840605  0.40251393     0.92150
O979        O  0.61660201  0.41584551  0.05853968    -0.83260
C980        C  0.59832136  0.40348757  0.09265075     0.92210
O981        O  0.55644596  0.11128188  0.41065619    -0.83240
Mg982      Mg  0.90791022  0.04543577  0.49608910     1.58180
O983        O  0.60637015  0.40959074  0.44334260    -0.81570
O984        O  0.91344436  0.05937562  0.11660979    -0.83270
C985        C  0.87514629  0.37465441  0.12458035    -0.03000
C986        C  0.87539612  0.12466792  0.37482743    -0.03000
C987        C  0.62536814  0.37491223  0.37456998    -0.03000
C988        C  0.62475004  0.12555572  0.37543775    -0.03000
C989        C  0.87452043  0.12529850  0.12547316    -0.03000
C990        C  0.62450144  0.37552861  0.12521570    -0.03000
O991        O  0.67924169  0.00283842  0.78143159    -0.88850
C992        C  0.78695829  0.01648556  0.83665411     0.87170
Mg993      Mg  0.66298017  0.45127692  0.74662953     1.58150
O994        O  0.77648160  0.07295670  0.74548426    -0.88590
O995        O  0.68341837  0.06992555  0.76232157    -0.75920
C996        C  0.84165479  0.40259300  0.64843499     0.92230
O997        O  0.74217678  0.43797141  0.82135581    -0.75730
O998        O  0.80921950  0.38351800  0.66349775    -0.83240
Mg999      Mg  0.70462387  0.49615526  0.84205852     1.57960
C1000       C  0.84656813  0.09272911  0.65165854     0.92150
O1001       O  0.65942401  0.05678211  0.85642534    -0.81500
H1002       H  0.74050680  0.11352341  0.71268688    -0.06840
C1003       C  0.83627207  0.46530168  0.73529332     0.87090
O1004       O  0.68039838  0.48704858  0.68673257    -0.76010
O1005       O  0.75360814  0.03343810  0.82435498    -0.88770
O1006       O  0.84763403  0.09323673  0.69258426    -0.81580
C1007       C  0.84461487  0.10556611  0.83950133     0.92260
C1008       C  0.65824205  0.09761188  0.85158409     0.92120
Mg1009     Mg  0.79527575  0.00404088  0.65797486     1.57950
O1010       O  0.84047107  0.44342228  0.64359546    -0.81500
O1011       O  0.75772424  0.06221884  0.67868497    -0.75750
O1012       O  0.80403020  0.11114138  0.83976888    -0.81590
O1013       O  0.66568486  0.44158318  0.86665261    -0.83300
O1014       O  0.69587382  0.38904678  0.66026690    -0.81620
C1015       C  0.75841758  0.08443634  0.71229334     0.86550
O1016       O  0.74629712  0.46675121  0.67568350    -0.88760
O1017       O  0.82066891  0.49734896  0.71859899    -0.88860
O1018       O  0.81649158  0.43026061  0.73770722    -0.75920
Mg1019     Mg  0.74299023  0.09281357  0.79629340     1.57970
O1020       O  0.86112806  0.08944468  0.80652647    -0.83290
H1021       H  0.63319696  0.03216544  0.74928928    -0.07020
O1022       O  0.72342704  0.42722463  0.75455523    -0.88560
H1023       H  0.75940527  0.38666617  0.78735963    -0.06840
H1024       H  0.71274149  0.99923486  0.63286905    -0.07020
C1025       C  0.74149074  0.41575106  0.78774869     0.86530
C1026       C  0.66363925  0.03488384  0.76473363     0.87120
C1027       C  0.71294529  0.48369720  0.66338141     0.87160
H1028       H  0.86671631  0.46801820  0.75073420    -0.07000
O1029       O  0.81950447  0.01313047  0.81330184    -0.76030
Mg1030     Mg  0.75691692  0.40737413  0.70373970     1.58000
H1031       H  0.78716119  0.50094574  0.86716572    -0.07020
C1032       C  0.65332697  0.40747073  0.84837968     0.92150
O1033       O  0.63878062  0.41073502  0.69352197    -0.83260
C1034       C  0.65528893  0.39461997  0.66054203     0.92210
O1035       O  0.69068103  0.11668288  0.83652385    -0.83240
Mg1036     Mg  0.83692855  0.04890638  0.75340902     1.58180
O1037       O  0.65226952  0.40694986  0.80745439    -0.81570
O1038       O  0.83420792  0.05862161  0.63337750    -0.83270
O1039       O  0.99547662  0.32210018  0.71939772    -0.88850
C1040       C  0.98618481  0.21290361  0.66443647     0.87170
Mg1041     Mg  0.54592592  0.34104747  0.75398082     1.58150
O1042       O  0.92794435  0.21948135  0.75447827    -0.88590
O1043       O  0.92881878  0.31401012  0.73871733    -0.75920
C1044       C  0.59824961  0.16152013  0.85215293     0.92230
O1045       O  0.56384971  0.26141092  0.67891467    -0.75730
O1046       O  0.61701003  0.19436049  0.83770300    -0.83240
Mg1047     Mg  0.50390309  0.29610099  0.65909213     1.57960
C1048       C  0.91135452  0.14795789  0.84832613     0.92150
O1049       O  0.94250003  0.33814899  0.64548616    -0.81500
H1050       H  0.88398893  0.25198651  0.78602149    -0.06840
C1051       C  0.53714794  0.16453433  0.76377270     0.87090
O1052       O  0.51122762  0.32122631  0.81392693    -0.76010
O1053       O  0.96932094  0.24565064  0.67803853    -0.88770
O1054       O  0.91189379  0.14557203  0.80746586    -0.81580
C1055       C  0.89780359  0.15179764  0.66143466     0.92260
C1056       C  0.90163961  0.33869106  0.64786983     0.92120
Mg1057     Mg  0.99597852  0.20411312  0.84094844     1.57950
O1058       O  0.55738866  0.16205953  0.85454044    -0.81500
O1059       O  0.93602675  0.23880420  0.82113332    -0.75750
O1060       O  0.89541533  0.19265764  0.66197293    -0.81590
O1061       O  0.55569913  0.33779178  0.63295018    -0.83300
O1062       O  0.60446044  0.30755997  0.83806916    -0.81620
C1063       C  0.91434608  0.23634518  0.78722761     0.86550
O1064       O  0.53055449  0.25457085  0.82200772    -0.88760
O1065       O  0.50439720  0.17812781  0.78063892    -0.88860
O1066       O  0.57105362  0.18621570  0.76131743    -0.75920
Mg1067     Mg  0.90900727  0.25406371  0.70402331     1.57970
O1068       O  0.91225700  0.13303585  0.69427273    -0.83290
H1069       H  0.96392584  0.36604732  0.75190474    -0.07020
O1070       O  0.57192318  0.28074180  0.74556738    -0.88560
H1071       H  0.61588627  0.24824002  0.71403193    -0.06840
H1072       H  0.99803945  0.28610731  0.86596006    -0.07020
C1073       C  0.58552733  0.26387746  0.71282119     0.86530
C1074       C  0.96272380  0.33569312  0.73626126     0.87120
C1075       C  0.51368558  0.28731779  0.83560547     0.87160
H1076       H  0.53594361  0.13418144  0.74812691    -0.07000
O1077       O  0.98864202  0.17899456  0.68611326    -0.76030
Mg1078     Mg  0.59086594  0.24615843  0.79601602     1.58000
H1079       H  0.50182723  0.21411425  0.63408000    -0.07020
C1080       C  0.58853327  0.35224778  0.65171441     0.92150
O1081       O  0.58761848  0.36718574  0.80577587    -0.83260
C1082       C  0.60207410  0.34841987  0.83861115     0.92210
O1083       O  0.88287409  0.30585544  0.66232372    -0.83240
Mg1084     Mg  0.95394760  0.15917654  0.74606156     1.58180
O1085       O  0.58798474  0.35464183  0.69257451    -0.81570
O1086       O  0.94419052  0.16241420  0.86708617    -0.83270
O1087       O  0.74720900  0.28152422  0.57072307    -0.88850
C1088       C  0.73354543  0.33673212  0.96299925     0.87170
Mg1089     Mg  0.79877066  0.24672072  0.58698601     1.58150
O1090       O  0.67707383  0.24556271  0.97348945    -0.88590
O1091       O  0.68012338  0.26240541  0.56655179    -0.75920
C1092       C  0.84744914  0.14852277  0.90831365     0.92230
O1093       O  0.81206902  0.32144065  0.50777752    -0.75730
O1094       O  0.86651997  0.16358878  0.94074760    -0.83240
Mg1095     Mg  0.75389012  0.34214809  0.54533544     1.57960
C1096       C  0.65731327  0.15173866  0.90339366     0.92150
O1097       O  0.69327059  0.35651661  0.59053448    -0.81500
H1098       H  0.63650908  0.21276356  0.50946632    -0.06840
C1099       C  0.78472577  0.23537524  0.91369588     0.87090
O1100       O  0.76299344  0.18682764  0.56957546    -0.76010
O1101       O  0.71659970  0.32443464  0.99635395    -0.88770
O1102       O  0.65679613  0.19266371  0.90233462    -0.81580
C1103       C  0.64446172  0.33958088  0.90535416     0.92260
C1104       C  0.65244133  0.35167226  0.59172447     0.92120
Mg1105     Mg  0.74599693  0.15805478  0.95469009     1.57950
O1106       O  0.80661965  0.14367985  0.90949737    -0.81500
O1107       O  0.68781363  0.17876119  0.99224196    -0.75750
O1108       O  0.63889019  0.33985164  0.94593939    -0.81590
O1109       O  0.80846996  0.36674766  0.58426643    -0.83300
O1110       O  0.86099116  0.16034899  0.55409755    -0.81620
C1111       C  0.66559556  0.21237078  0.99155323     0.86550
O1112       O  0.78328306  0.17576811  0.50367552    -0.88760
O1113       O  0.75268065  0.21867933  0.92930180    -0.88860
O1114       O  0.81976769  0.23779077  0.93347457    -0.75920
Mg1115     Mg  0.65722492  0.29637555  0.50698131     1.57970
O1116       O  0.66057637  0.30660213  0.88884315    -0.83290
H1117       H  0.71788794  0.24938271  0.61677360    -0.07020
O1118       O  0.82281057  0.25464042  0.52653462    -0.88560
H1119       H  0.86337109  0.28743631  0.99054985    -0.06840
H1120       H  0.75079394  0.13296571  0.53723545    -0.07020
C1121       C  0.83428673  0.28783076  0.50846631     0.86530
C1122       C  0.71516576  0.26482458  0.58632934     0.87120
C1123       C  0.76633599  0.16347418  0.53703085     0.87160
H1124       H  0.78200627  0.25081601  0.88325082    -0.07000
O1125       O  0.73689422  0.31337939  0.93045487    -0.76030
Mg1126     Mg  0.84265967  0.20382376  0.99305074     1.58000
H1127       H  0.74908309  0.36724283  0.96279604    -0.07020
C1128       C  0.84258350  0.34847072  0.59662200     0.92150
O1129       O  0.83931126  0.19360725  0.61118946    -0.83260
C1130       C  0.85542313  0.16062495  0.59468329     0.92210
O1131       O  0.63336573  0.33660871  0.55929171    -0.83240
Mg1132     Mg  0.70112019  0.25348735  0.91303980     1.58180
O1133       O  0.84310130  0.30754539  0.59768161    -0.81570
O1134       O  0.69142424  0.13345969  0.91575237    -0.83270
O1135       O  0.57429068  0.00376881  0.96667302    -0.88850
C1136       C  0.96222110  0.00857376  0.91568832     0.87170
Mg1137     Mg  0.59200915  0.45478541  0.50396406     1.58150
O1138       O  0.96853655  0.07081898  0.50276976    -0.88590
O1139       O  0.56323643  0.06966499  0.98697282    -0.75920
C1140       C  0.91047922  0.40544259  0.60549361     0.92230
O1141       O  0.51226465  0.43358028  0.93020138    -0.75730
O1142       O  0.94345985  0.38893453  0.58937813    -0.83240
Mg1143     Mg  0.54623205  0.49315143  0.90730595     1.57960
C1144       C  0.89838037  0.09181064  0.59753472     0.92150
O1145       O  0.58969464  0.05418768  0.88896465    -0.81500
H1146       H  0.50067857  0.11686379  0.53209186    -0.06840
C1147       C  0.91333037  0.46310824  0.51643211     0.87090
O1148       O  0.57130528  0.49233862  0.56214512    -0.76010
O1149       O  0.99541302  0.02663741  0.92716249    -0.88770
O1150       O  0.89353965  0.09062652  0.55670582    -0.81580
C1151       C  0.90158556  0.09672020  0.90739688     0.92260
C1152       C  0.58942317  0.09477158  0.89453651     0.92120
Mg1153     Mg  0.95368017  0.00706859  0.59274925     1.57950
O1154       O  0.91020952  0.44602611  0.61107415    -0.81500
O1155       O  0.98765065  0.06664155  0.56985632    -0.75750
O1156       O  0.94251118  0.09778485  0.90688043    -0.81590
O1157       O  0.58646012  0.44084305  0.88344049    -0.83300
O1158       O  0.55739611  0.40242997  0.59316621    -0.81620
C1159       C  0.98523549  0.08642119  0.53481342     0.86550
O1160       O  0.50450455  0.47358480  0.57289850    -0.88760
O1161       O  0.92563318  0.49645729  0.53337912    -0.88860
O1162       O  0.93668232  0.43056372  0.51307325    -0.75920
Mg1163     Mg  0.50333819  0.08708381  0.95120518     1.57970
O1164       O  0.88330899  0.08436527  0.94151114    -0.83290
H1165       H  0.61710305  0.03731991  0.49915275    -0.07020
O1166       O  0.53138078  0.42941275  0.99728595    -0.88560
H1167       H  0.99924576  0.38335946  0.96797030    -0.06840
H1168       H  0.53729699  0.00955772  0.61344995    -0.07020
C1169       C  0.51468419  0.41380404  0.96524509     0.86530
C1170       C  0.58658987  0.03712032  0.98361902     0.87120
C1171       C  0.53769801  0.49164962  0.58436860     0.87160
H1172       H  0.88281617  0.46291166  0.00090042    -0.07000
O1173       O  0.92861340  0.00788299  0.93790990    -0.76030
Mg1174     Mg  0.99657587  0.41314165  0.54884299     1.58000
H1175       H  0.96262457  0.49066516  0.88660764    -0.07020
C1176       C  0.60152158  0.40840605  0.90251392     0.92150
O1177       O  0.61660201  0.41584551  0.55853968    -0.83260
C1178       C  0.59832136  0.40348757  0.59265075     0.92210
O1179       O  0.55644596  0.11128189  0.91065618    -0.83240
Mg1180     Mg  0.90791023  0.04543578  0.99608911     1.58180
O1181       O  0.60637015  0.40959074  0.94334260    -0.81570
O1182       O  0.91344437  0.05937561  0.61660978    -0.83270
C1183       C  0.87514630  0.37465441  0.62458035    -0.03000
C1184       C  0.87539612  0.12466792  0.87482743    -0.03000
C1185       C  0.62536814  0.37491224  0.87456998    -0.03000
C1186       C  0.62475005  0.12555572  0.87543774    -0.03000
C1187       C  0.87452044  0.12529850  0.62547316    -0.03000
C1188       C  0.62450144  0.37552861  0.62521571    -0.03000
O1189       O  0.67924902  0.50283722  0.28143062    -0.88850
C1190       C  0.78696487  0.51648419  0.33665399     0.87170
Mg1191     Mg  0.66297308  0.95127903  0.24662941     1.58150
O1192       O  0.77648859  0.57295544  0.24548451    -0.88590
O1193       O  0.68342580  0.56992451  0.26232098    -0.75920
C1194       C  0.84164844  0.90259232  0.14843765     0.92230
O1195       O  0.74216986  0.93797210  0.32135614    -0.75730
O1196       O  0.80921267  0.88351788  0.16350003    -0.83240
Mg1197     Mg  0.70461728  0.99615575  0.34205933     1.57960
C1198       C  0.84657259  0.59272851  0.15165897     0.92150
O1199       O  0.65943049  0.55678260  0.35642365    -0.81500
H1200       H  0.74051341  0.61352237  0.21268780    -0.06840
C1201       C  0.83626491  0.96530285  0.23529506     0.87090
O1202       O  0.68039230  0.98705102  0.18673313    -0.76010
O1203       O  0.75361501  0.53343732  0.32435484    -0.88770
O1204       O  0.84763945  0.59323457  0.19258473    -0.81580
C1205       C  0.84462173  0.60556414  0.33950320     0.92260
C1206       C  0.65824891  0.59761248  0.35158242     0.92120
Mg1207     Mg  0.79528134  0.50404047  0.15797408     1.57950
O1208       O  0.84046522  0.94342163  0.14359790    -0.81500
O1209       O  0.75772977  0.56221774  0.17868550    -0.75750
O1210       O  0.80403718  0.61114040  0.33976962    -0.81590
O1211       O  0.66567828  0.94158399  0.36665367    -0.83300
O1212       O  0.69586692  0.88904808  0.16026671    -0.81620
C1213       C  0.75842407  0.58443522  0.21229387     0.86550
O1214       O  0.74629077  0.96675246  0.17568421    -0.88760
O1215       O  0.82066252  0.99735011  0.21859990    -0.88860
O1216       O  0.81648406  0.93026194  0.23770882    -0.75920
Mg1217     Mg  0.74299753  0.59281275  0.29629325     1.57970
O1218       O  0.86113513  0.58944143  0.30652895    -0.83290
H1219       H  0.63320486  0.53216421  0.24928741    -0.07020
O1220       O  0.72341965  0.92722621  0.25455553    -0.88560
H1221       H  0.75939725  0.88666683  0.28735949    -0.06840
H1222       H  0.71274706  0.49923274  0.13286823    -0.07020
C1223       C  0.74148320  0.91575201  0.28774887     0.86530
C1224       C  0.66364685  0.53488264  0.26473236     0.87120
C1225       C  0.71293927  0.98369912  0.16338211     0.87160
H1226       H  0.86670881  0.96801922  0.25073665    -0.07000
O1227       O  0.81951084  0.51312805  0.31330157    -0.76030
Mg1228     Mg  0.75690968  0.90737532  0.20374056     1.58000
H1229       H  0.78715488  0.00094695  0.36716575    -0.07020
C1230       C  0.65332100  0.90747196  0.34837967     0.92150
O1231       O  0.63877335  0.91073818  0.19351985    -0.83260
C1232       C  0.65528209  0.89462195  0.16054060     0.92210
O1233       O  0.69068826  0.61668307  0.33652254    -0.83240
Mg1234     Mg  0.83693516  0.54890433  0.25340932     1.58180
O1235       O  0.65226300  0.90695234  0.30745433    -0.81570
O1236       O  0.83421258  0.55862165  0.13337673    -0.83270
O1237       O  0.99547339  0.82209939  0.21939869    -0.88850
C1238       C  0.98618248  0.71290469  0.16443650     0.87170
Mg1239     Mg  0.54592297  0.84104637  0.25398066     1.58150
O1240       O  0.92794598  0.71948109  0.25448041    -0.88590
O1241       O  0.92881626  0.81400990  0.23872045    -0.75920
C1242       C  0.59825533  0.66152047  0.35215039     0.92230
O1243       O  0.56384609  0.76141151  0.17891329    -0.75730
O1244       O  0.61701476  0.69436118  0.33769997    -0.83240
Mg1245     Mg  0.50389850  0.79610124  0.15909281     1.57960
C1246       C  0.91136032  0.64795684  0.34832721     0.92150
O1247       O  0.94249442  0.83814867  0.14548891    -0.81500
H1248       H  0.88399123  0.75198507  0.28602577    -0.06840
C1249       C  0.53715079  0.66453396  0.26377162     0.87090
O1250       O  0.51122645  0.82122410  0.31392714    -0.76010
O1251       O  0.96931774  0.74565098  0.17803930    -0.88770
O1252       O  0.91189838  0.64557134  0.30746693    -0.81580
C1253       C  0.89780488  0.65179888  0.16143657     0.92260
C1254       C  0.90163400  0.83869034  0.14787340     0.92120
Mg1255     Mg  0.99598320  0.70411185  0.34094848     1.57950
O1256       O  0.55739439  0.66205899  0.35453861    -0.81500
O1257       O  0.93603024  0.73880239  0.32113567    -0.75750
O1258       O  0.89541404  0.69265860  0.16197583    -0.81590
O1259       O  0.55569348  0.83779185  0.13295051    -0.83300
O1260       O  0.60446082  0.80755896  0.33806729    -0.81620
C1261       C  0.91434859  0.73634405  0.28723055     0.86550
O1262       O  0.53055734  0.75456976  0.32200764    -0.88760
O1263       O  0.50440053  0.67812770  0.28063851    -0.88860
O1264       O  0.57105633  0.68621536  0.26131529    -0.75920
Mg1265     Mg  0.90900513  0.75406348  0.20402673     1.57970
O1266       O  0.91225988  0.63303702  0.19427383    -0.83290
H1267       H  0.96392383  0.86604725  0.25190595    -0.07020
O1268       O  0.57192151  0.78074142  0.24556604    -0.88560
H1269       H  0.61588386  0.74824051  0.21402870    -0.06840
H1270       H  0.99804231  0.78610478  0.36596103    -0.07020
C1271       C  0.58552474  0.76387767  0.21281917     0.86530
C1272       C  0.96272118  0.83569282  0.23626295     0.87120
C1273       C  0.51368729  0.78731593  0.33560587     0.87160
H1274       H  0.53594605  0.63418092  0.24812616    -0.07000
O1275       O  0.98864278  0.67899597  0.18611343    -0.76030
Mg1276     Mg  0.59086783  0.74615830  0.29601362     1.58000
H1277       H  0.50182344  0.71411602  0.13407931    -0.07020
C1278       C  0.58852793  0.85224804  0.15171391     0.92150
O1279       O  0.58761492  0.86718425  0.30577518    -0.83260
C1280       C  0.60207186  0.84841858  0.33860991     0.92210
O1281       O  0.88286913  0.80585459  0.16232785    -0.83240
Mg1282     Mg  0.95395044  0.65917695  0.24606220     1.58180
O1283       O  0.58798046  0.85464196  0.19257401    -0.81570
O1284       O  0.94419680  0.66241285  0.36708649    -0.83270
O1285       O  0.74720578  0.78152195  0.07072243    -0.88850
C1286       C  0.73354293  0.83673545  0.46300072     0.87170
Mg1287     Mg  0.79876811  0.74671863  0.08698668     1.58150
O1288       O  0.67707440  0.74556389  0.47348770    -0.88590
O1289       O  0.68011994  0.76240466  0.06655078    -0.75920
C1290       C  0.84745505  0.64852310  0.40831453     0.92230
O1291       O  0.81206599  0.82144067  0.00777988    -0.75730
O1292       O  0.86652507  0.66358952  0.44074883    -0.83240
Mg1293     Mg  0.75388618  0.84214713  0.04533727     1.57960
C1294       C  0.65731953  0.65174106  0.40339065     0.92150
O1295       O  0.69326544  0.85651597  0.09053520    -0.81500
H1296       H  0.63651118  0.71276233  0.00946404    -0.06840
C1297       C  0.78473018  0.73537876  0.41369664     0.87090
O1298       O  0.76299332  0.68682512  0.06957388    -0.76010
O1299       O  0.71659665  0.82443627  0.49635453    -0.88770
O1300       O  0.65680156  0.69266606  0.40233149    -0.81580
C1301       C  0.64445923  0.83958142  0.40535330     0.92260
C1302       C  0.65243605  0.85167219  0.09172395     0.92120
Mg1303     Mg  0.74600161  0.65805715  0.45468827     1.57950
O1304       O  0.80662538  0.64368136  0.40949692    -0.81500
O1305       O  0.68781736  0.67876257  0.49223946    -0.75750
O1306       O  0.63888699  0.83985153  0.44593845    -0.81590
O1307       O  0.80846440  0.86674532  0.08426966    -0.83300
O1308       O  0.86099423  0.66034987  0.05409891    -0.81620
C1309       C  0.66559774  0.71237115  0.49155103     0.86550
O1310       O  0.78328662  0.67576835  0.00367472    -0.88760
O1311       O  0.75268473  0.71868295  0.42930188    -0.88860
O1312       O  0.81977215  0.73779257  0.43347544    -0.75920
Mg1313     Mg  0.65722238  0.79637547  0.00698024     1.57970
O1314       O  0.66057654  0.80660394  0.38884227    -0.83290
H1315       H  0.71788423  0.74937996  0.11677229    -0.07020
O1316       O  0.82281108  0.75464061  0.02653628    -0.88560
H1317       H  0.86336972  0.78743907  0.49055176    -0.06840
H1318       H  0.75079835  0.63296327  0.03723206    -0.07020
C1319       C  0.83428537  0.78783183  0.00846830     0.86530
C1320       C  0.71516235  0.76482249  0.08632834     0.87120
C1321       C  0.76633885  0.66347254  0.03702899     0.87160
H1322       H  0.78201118  0.75082049  0.38325201    -0.07000
O1323       O  0.73689444  0.81338348  0.43045607    -0.76030
Mg1324     Mg  0.84266302  0.70382481  0.49305185     1.58000
H1325       H  0.74907905  0.86724694  0.46279882    -0.07020
C1326       C  0.84257781  0.84846871  0.09662570     0.92150
O1327       O  0.83931080  0.69360628  0.11119066    -0.83260
C1328       C  0.85542510  0.66062510  0.09468454     0.92210
O1329       O  0.63336138  0.83660811  0.05929083    -0.83240
Mg1330     Mg  0.70112314  0.75349057  0.41303894     1.58180
O1331       O  0.84309640  0.80754348  0.09768515    -0.81570
O1332       O  0.69143055  0.63346266  0.41574970    -0.83270
O1333       O  0.57430393  0.50377309  0.46667522    -0.88850
C1334       C  0.96223234  0.50857659  0.41569301     0.87170
Mg1335     Mg  0.59199803  0.95478184  0.00396124     1.58150
O1336       O  0.96854640  0.57082397  0.00277389    -0.88590
O1337       O  0.56324712  0.56966911  0.48697528    -0.75920
C1338       C  0.91047187  0.90544023  0.10549466     0.92230
O1339       O  0.51225343  0.93357745  0.43019757    -0.75730
O1340       O  0.94345188  0.88893158  0.08937861    -0.83240
Mg1341     Mg  0.54622214  0.99314844  0.40730257     1.57960
C1342       C  0.89838618  0.59181293  0.09753688     0.92150
O1343       O  0.58970265  0.55418978  0.38896546    -0.81500
H1344       H  0.50068879  0.61686811  0.03209680    -0.06840
C1345       C  0.91331916  0.96310344  0.01642975     0.87090
O1346       O  0.57129445  0.99233456  0.06214227    -0.76010
O1347       O  0.99542394  0.52664000  0.42716807    -0.88770
O1348       O  0.89354708  0.59062925  0.05670792    -0.81580
C1349       C  0.90159309  0.59672107  0.40739988     0.92260
C1350       C  0.58943106  0.59477364  0.39453645     0.92120
Mg1351     Mg  0.95368909  0.50707214  0.09275284     1.57950
O1352       O  0.91020187  0.94602385  0.11107349    -0.81500
O1353       O  0.98765970  0.56664581  0.06986088    -0.75750
O1354       O  0.94251886  0.59778608  0.40688343    -0.81590
O1355       O  0.58645182  0.94084023  0.38343874    -0.83300
O1356       O  0.55738825  0.90242726  0.09316348    -0.81620
C1357       C  0.98524531  0.58642566  0.03481794     0.86550
O1358       O  0.50449396  0.97358059  0.07289404    -0.88760
O1359       O  0.92562174  0.99645294  0.03337623    -0.88860
O1360       O  0.93667105  0.93055863  0.01307199    -0.75920
Mg1361     Mg  0.50334775  0.58708721  0.45120814     1.57970
O1362       O  0.88331691  0.58436729  0.44151469    -0.83290
H1363       H  0.61711478  0.53732572  0.99915548    -0.07020
O1364       O  0.53136993  0.92940705  0.49728231    -0.88560
H1365       H  0.99923245  0.88335623  0.46796532    -0.06840
H1366       H  0.53730839  0.50956321  0.11345274    -0.07020
C1367       C  0.51467227  0.91380019  0.46524091     0.86530
C1368       C  0.58660170  0.53712510  0.48362151     0.87120
C1369       C  0.53768708  0.99164495  0.08436532     0.87160
H1370       H  0.88280501  0.96290643  0.50089794    -0.07000
O1371       O  0.92862416  0.50788629  0.43791366    -0.76030
Mg1372     Mg  0.99656600  0.91313700  0.04884073     1.58000
H1373       H  0.96261270  0.99066236  0.38660290    -0.07020
C1374       C  0.60151425  0.90840376  0.40251229     0.92150
O1375       O  0.61659368  0.91584331  0.05853658    -0.83260
C1376       C  0.59831362  0.90348597  0.09264814     0.92210
O1377       O  0.55645460  0.61128424  0.41065728    -0.83240
Mg1378     Mg  0.90792028  0.54543914  0.49609235     1.58180
O1379       O  0.60636131  0.90958806  0.44334097    -0.81570
O1380       O  0.91345085  0.55937827  0.11661211    -0.83270
C1381       C  0.87513997  0.87465296  0.12458359    -0.03000
C1382       C  0.87540268  0.62466714  0.37482929    -0.03000
C1383       C  0.62536372  0.87491172  0.37456908    -0.03000
C1384       C  0.62475684  0.62555709  0.37543555    -0.03000
C1385       C  0.87452368  0.62529935  0.12547455    -0.03000
C1386       C  0.62449511  0.87552905  0.12521430    -0.03000
O1387       O  0.67924902  0.50283722  0.78143062    -0.88850
C1388       C  0.78696486  0.51648419  0.83665399     0.87170
Mg1389     Mg  0.66297308  0.95127902  0.74662941     1.58150
O1390       O  0.77648859  0.57295544  0.74548451    -0.88590
O1391       O  0.68342580  0.56992451  0.76232098    -0.75920
C1392       C  0.84164844  0.90259231  0.64843765     0.92230
O1393       O  0.74216986  0.93797209  0.82135614    -0.75730
O1394       O  0.80921267  0.88351787  0.66350003    -0.83240
Mg1395     Mg  0.70461728  0.99615575  0.84205933     1.57960
C1396       C  0.84657260  0.59272850  0.65165898     0.92150
O1397       O  0.65943049  0.55678261  0.85642365    -0.81500
H1398       H  0.74051341  0.61352236  0.71268780    -0.06840
C1399       C  0.83626492  0.96530284  0.73529507     0.87090
O1400       O  0.68039231  0.98705102  0.68673313    -0.76010
O1401       O  0.75361501  0.53343732  0.82435484    -0.88770
O1402       O  0.84763945  0.59323457  0.69258473    -0.81580
C1403       C  0.84462173  0.60556415  0.83950320     0.92260
C1404       C  0.65824891  0.59761249  0.85158242     0.92120
Mg1405     Mg  0.79528134  0.50404047  0.65797408     1.57950
O1406       O  0.84046523  0.94342162  0.64359790    -0.81500
O1407       O  0.75772978  0.56221774  0.67868550    -0.75750
O1408       O  0.80403718  0.61114040  0.83976962    -0.81590
O1409       O  0.66567828  0.94158400  0.86665367    -0.83300
O1410       O  0.69586692  0.88904807  0.66026671    -0.81620
C1411       C  0.75842407  0.58443522  0.71229387     0.86550
O1412       O  0.74629078  0.96675245  0.67568421    -0.88760
O1413       O  0.82066253  0.99735010  0.71859990    -0.88860
O1414       O  0.81648406  0.93026193  0.73770883    -0.75920
Mg1415     Mg  0.74299752  0.59281276  0.79629325     1.57970
O1416       O  0.86113512  0.58944144  0.80652895    -0.83290
H1417       H  0.63320486  0.53216421  0.74928741    -0.07020
O1418       O  0.72341966  0.92722621  0.75455554    -0.88560
H1419       H  0.75939725  0.88666682  0.78735950    -0.06840
H1420       H  0.71274706  0.49923273  0.63286823    -0.07020
C1421       C  0.74148320  0.91575201  0.78774887     0.86530
C1422       C  0.66364685  0.53488264  0.76473236     0.87120
C1423       C  0.71293928  0.98369911  0.66338211     0.87160
H1424       H  0.86670881  0.96801921  0.75073665    -0.07000
O1425       O  0.81951083  0.51312806  0.81330158    -0.76030
Mg1426     Mg  0.75690968  0.90737531  0.70374056     1.58000
H1427       H  0.78715488  0.00094695  0.86716576    -0.07020
C1428       C  0.65332099  0.90747196  0.84837967     0.92150
O1429       O  0.63877335  0.91073818  0.69351985    -0.83260
C1430       C  0.65528209  0.89462194  0.66054060     0.92210
O1431       O  0.69068826  0.61668307  0.83652254    -0.83240
Mg1432     Mg  0.83693516  0.54890433  0.75340933     1.58180
O1433       O  0.65226300  0.90695234  0.80745433    -0.81570
O1434       O  0.83421259  0.55862165  0.63337673    -0.83270
O1435       O  0.99547339  0.82209939  0.71939869    -0.88850
C1436       C  0.98618248  0.71290468  0.66443651     0.87170
Mg1437     Mg  0.54592296  0.84104637  0.75398065     1.58150
O1438       O  0.92794598  0.71948109  0.75448041    -0.88590
O1439       O  0.92881626  0.81400990  0.73872045    -0.75920
C1440       C  0.59825533  0.66152047  0.85215040     0.92230
O1441       O  0.56384610  0.76141151  0.67891329    -0.75730
O1442       O  0.61701476  0.69436119  0.83769998    -0.83240
Mg1443     Mg  0.50389850  0.79610123  0.65909281     1.57960
C1444       C  0.91136032  0.64795685  0.84832721     0.92150
O1445       O  0.94249442  0.83814867  0.64548891    -0.81500
H1446       H  0.88399123  0.75198507  0.78602577    -0.06840
C1447       C  0.53715080  0.66453396  0.76377163     0.87090
O1448       O  0.51122645  0.82122410  0.81392714    -0.76010
O1449       O  0.96931775  0.74565097  0.67803930    -0.88770
O1450       O  0.91189838  0.64557134  0.80746694    -0.81580
C1451       C  0.89780489  0.65179888  0.66143657     0.92260
C1452       C  0.90163401  0.83869033  0.64787340     0.92120
Mg1453     Mg  0.99598320  0.70411185  0.84094849     1.57950
O1454       O  0.55739438  0.66205899  0.85453862    -0.81500
O1455       O  0.93603024  0.73880239  0.82113567    -0.75750
O1456       O  0.89541404  0.69265860  0.66197584    -0.81590
O1457       O  0.55569348  0.83779184  0.63295051    -0.83300
O1458       O  0.60446081  0.80755896  0.83806729    -0.81620
C1459       C  0.91434859  0.73634405  0.78723055     0.86550
O1460       O  0.53055734  0.75456976  0.82200764    -0.88760
O1461       O  0.50440053  0.67812770  0.78063852    -0.88860
O1462       O  0.57105633  0.68621536  0.76131530    -0.75920
Mg1463     Mg  0.90900513  0.75406348  0.70402673     1.57970
O1464       O  0.91225989  0.63303702  0.69427384    -0.83290
H1465       H  0.96392383  0.86604724  0.75190595    -0.07020
O1466       O  0.57192151  0.78074142  0.74556604    -0.88560
H1467       H  0.61588387  0.74824051  0.71402871    -0.06840
H1468       H  0.99804231  0.78610478  0.86596104    -0.07020
C1469       C  0.58552474  0.76387767  0.71281918     0.86530
C1470       C  0.96272118  0.83569282  0.73626295     0.87120
C1471       C  0.51368729  0.78731593  0.83560587     0.87160
H1472       H  0.53594605  0.63418092  0.74812617    -0.07000
O1473       O  0.98864278  0.67899597  0.68611343    -0.76030
Mg1474     Mg  0.59086783  0.74615830  0.79601362     1.58000
H1475       H  0.50182345  0.71411601  0.63407931    -0.07020
C1476       C  0.58852793  0.85224804  0.65171391     0.92150
O1477       O  0.58761492  0.86718425  0.80577518    -0.83260
C1478       C  0.60207186  0.84841859  0.83860991     0.92210
O1479       O  0.88286913  0.80585458  0.66232785    -0.83240
Mg1480     Mg  0.95395044  0.65917694  0.74606220     1.58180
O1481       O  0.58798046  0.85464195  0.69257401    -0.81570
O1482       O  0.94419680  0.66241285  0.86708649    -0.83270
O1483       O  0.74720579  0.78152194  0.57072243    -0.88850
C1484       C  0.73354293  0.83673546  0.96300072     0.87170
Mg1485     Mg  0.79876811  0.74671862  0.58698668     1.58150
O1486       O  0.67707439  0.74556390  0.97348770    -0.88590
O1487       O  0.68011994  0.76240465  0.56655078    -0.75920
C1488       C  0.84745505  0.64852310  0.90831453     0.92230
O1489       O  0.81206599  0.82144067  0.50777988    -0.75730
O1490       O  0.86652507  0.66358953  0.94074883    -0.83240
Mg1491     Mg  0.75388619  0.84214712  0.54533727     1.57960
C1492       C  0.65731953  0.65174106  0.90339065     0.92150
O1493       O  0.69326545  0.85651596  0.59053520    -0.81500
H1494       H  0.63651118  0.71276232  0.50946404    -0.06840
C1495       C  0.78473018  0.73537877  0.91369664     0.87090
O1496       O  0.76299333  0.68682511  0.56957388    -0.76010
O1497       O  0.71659665  0.82443627  0.99635452    -0.88770
O1498       O  0.65680155  0.69266606  0.90233149    -0.81580
C1499       C  0.64445922  0.83958142  0.90535330     0.92260
C1500       C  0.65243605  0.85167218  0.59172395     0.92120
Mg1501     Mg  0.74600160  0.65805716  0.95468827     1.57950
O1502       O  0.80662538  0.64368137  0.90949692    -0.81500
O1503       O  0.68781736  0.67876258  0.99223946    -0.75750
O1504       O  0.63888698  0.83985153  0.94593845    -0.81590
O1505       O  0.80846440  0.86674531  0.58426966    -0.83300
O1506       O  0.86099424  0.66034986  0.55409892    -0.81620
C1507       C  0.66559773  0.71237116  0.99155103     0.86550
O1508       O  0.78328663  0.67576834  0.50367472    -0.88760
O1509       O  0.75268472  0.71868296  0.92930188    -0.88860
O1510       O  0.81977215  0.73779257  0.93347544    -0.75920
Mg1511     Mg  0.65722238  0.79637546  0.50698024     1.57970
O1512       O  0.66057653  0.80660394  0.88884227    -0.83290
H1513       H  0.71788423  0.74937995  0.61677228    -0.07020
O1514       O  0.82281108  0.75464060  0.52653628    -0.88560
H1515       H  0.86336971  0.78743907  0.99055176    -0.06840
H1516       H  0.75079836  0.63296326  0.53723206    -0.07020
C1517       C  0.83428537  0.78783182  0.50846830     0.86530
C1518       C  0.71516236  0.76482248  0.58632834     0.87120
C1519       C  0.76633885  0.66347253  0.53702899     0.87160
H1520       H  0.78201118  0.75082049  0.88325201    -0.07000
O1521       O  0.73689444  0.81338349  0.93045607    -0.76030
Mg1522     Mg  0.84266302  0.70382482  0.99305185     1.58000
H1523       H  0.74907904  0.86724695  0.96279881    -0.07020
C1524       C  0.84257782  0.84846870  0.59662571     0.92150
O1525       O  0.83931080  0.69360627  0.61119067    -0.83260
C1526       C  0.85542511  0.66062510  0.59468454     0.92210
O1527       O  0.63336139  0.83660810  0.55929083    -0.83240
Mg1528     Mg  0.70112314  0.75349058  0.91303894     1.58180
O1529       O  0.84309640  0.80754347  0.59768515    -0.81570
O1530       O  0.69143055  0.63346266  0.91574970    -0.83270
O1531       O  0.57430392  0.50377309  0.96667522    -0.88850
C1532       C  0.96223234  0.50857659  0.91569300     0.87170
Mg1533     Mg  0.59199803  0.95478183  0.50396124     1.58150
O1534       O  0.96854641  0.57082397  0.50277390    -0.88590
O1535       O  0.56324711  0.56966911  0.98697528    -0.75920
C1536       C  0.91047188  0.90544022  0.60549466     0.92230
O1537       O  0.51225343  0.93357745  0.93019758    -0.75730
O1538       O  0.94345188  0.88893157  0.58937860    -0.83240
Mg1539     Mg  0.54622214  0.99314845  0.90730257     1.57960
C1540       C  0.89838619  0.59181293  0.59753688     0.92150
O1541       O  0.58970264  0.55418979  0.88896546    -0.81500
H1542       H  0.50068880  0.61686811  0.53209680    -0.06840
C1543       C  0.91331915  0.96310343  0.51642974     0.87090
O1544       O  0.57129445  0.99233455  0.56214228    -0.76010
O1545       O  0.99542393  0.52664000  0.92716807    -0.88770
O1546       O  0.89354709  0.59062925  0.55670792    -0.81580
C1547       C  0.90159309  0.59672108  0.90739988     0.92260
C1548       C  0.58943106  0.59477365  0.89453645     0.92120
Mg1549     Mg  0.95368910  0.50707214  0.59275285     1.57950
O1550       O  0.91020188  0.94602384  0.61107349    -0.81500
O1551       O  0.98765971  0.56664581  0.56986088    -0.75750
O1552       O  0.94251886  0.59778609  0.90688343    -0.81590
O1553       O  0.58645182  0.94084023  0.88343873    -0.83300
O1554       O  0.55738825  0.90242725  0.59316348    -0.81620
C1555       C  0.98524531  0.58642566  0.53481794     0.86550
O1556       O  0.50449396  0.97358058  0.57289404    -0.88760
O1557       O  0.92562173  0.99645293  0.53337623    -0.88860
O1558       O  0.93667105  0.93055862  0.51307199    -0.75920
Mg1559     Mg  0.50334775  0.58708721  0.95120814     1.57970
O1560       O  0.88331690  0.58436729  0.94151468    -0.83290
H1561       H  0.61711478  0.53732572  0.49915548    -0.07020
O1562       O  0.53136993  0.92940706  0.99728231    -0.88560
H1563       H  0.99923245  0.88335624  0.96796532    -0.06840
H1564       H  0.53730839  0.50956321  0.61345274    -0.07020
C1565       C  0.51467227  0.91380020  0.96524091     0.86530
C1566       C  0.58660170  0.53712510  0.98362151     0.87120
C1567       C  0.53768708  0.99164494  0.58436532     0.87160
H1568       H  0.88280501  0.96290644  0.00089795    -0.07000
O1569       O  0.92862415  0.50788629  0.93791366    -0.76030
Mg1570     Mg  0.99656600  0.91313699  0.54884073     1.58000
H1571       H  0.96261270  0.99066237  0.88660291    -0.07020
C1572       C  0.60151425  0.90840377  0.90251229     0.92150
O1573       O  0.61659369  0.91584330  0.55853658    -0.83260
C1574       C  0.59831362  0.90348597  0.59264814     0.92210
O1575       O  0.55645459  0.61128424  0.91065728    -0.83240
Mg1576     Mg  0.90792028  0.54543914  0.99609234     1.58180
O1577       O  0.60636131  0.90958806  0.94334097    -0.81570
O1578       O  0.91345085  0.55937827  0.61661211    -0.83270
C1579       C  0.87513997  0.87465295  0.62458359    -0.03000
C1580       C  0.87540268  0.62466715  0.87482929    -0.03000
C1581       C  0.62536372  0.87491173  0.87456908    -0.03000
C1582       C  0.62475683  0.62555710  0.87543555    -0.03000
C1583       C  0.87452368  0.62529934  0.62547456    -0.03000
C1584       C  0.62449511  0.87552904  0.62521430    -0.03000
loop_ 
_geom_bond_atom_site_label_1 
_geom_bond_atom_site_label_2 
_geom_bond_distance 
_geom_bond_site_symmetry_2 
_ccdc_geom_bond_type 
O1           C36   1.243       .  S
O1         Mg399   2.033   1_545  S
O1         Mg405   2.085   1_545  S
C2           O15   1.244       .  S
C2           O39   1.273       .  A
C2          H437   1.081       .  S
Mg3          O32   2.072       .  S
Mg3         O397   2.033       .  S
Mg3          O47   2.399       .  S
Mg3          O43   2.245       .  S
Mg3          O14   2.270       .  S
O4           C25   1.246       .  S
O4          Mg46   2.072       .  S
O4          Mg29   2.028       .  S
O5           C36   1.272       .  A
O5          Mg29   2.281       .  S
C6            O8   1.280       .  A
C6           O20   1.299       .  A
C6          C193   1.576       .  S
O7           C35   1.275       .  A
O7           Mg9   2.290       .  S
O8          Mg40   2.224       .  S
Mg9         O397   2.085       .  S
Mg9         O411   2.022       .  S
Mg9          O23   2.253       .  S
Mg9         O407   2.438       .  S
C10          O48   1.284       .  A
C10          O16   1.294       .  A
C10         C197   1.587       .  S
O11          C18   1.299       .  A
O11        Mg405   2.438   1_545  S
H12          C25   1.081       .  S
C13          O27   1.243       .  S
C13          O28   1.272       .  A
C13          H38   1.081       .  S
O14          C37   1.273       .  A
O15         Mg29   2.100       .  S
O15        Mg405   2.022   1_545  S
O16         Mg46   2.399       .  S
C17          O30   1.275       .  A
C17          O22   1.295       .  A
C17         C194   1.597       .  S
C18          O45   1.280       .  A
C18         C196   1.576       .  S
Mg19        O422   2.022   1_545  S
Mg19        O423   2.085   1_545  S
Mg19         O21   2.290       .  S
Mg19         O48   2.253       .  S
Mg19        O416   2.438   1_545  S
O20        Mg415   2.438       .  S
O21          C25   1.275       .  A
O22         Mg29   2.434       .  S
O23          C42   1.284       .  A
O24          C44   1.295       .  A
O24         Mg40   2.434       .  S
O26          C37   1.244       .  S
O26         Mg40   2.100       .  S
O26        Mg415   2.022       .  S
O27        Mg415   2.085       .  S
O27        Mg442   2.033       .  S
O28         Mg40   2.281       .  S
Mg29         O45   2.224       .  S
O30         Mg46   2.246       .  S
H31          C36   1.081       .  S
O32          C35   1.246       .  S
O32         Mg40   2.028       .  S
H33          C35   1.081       .  S
H34         C433   1.081       .  S
C37         H430   1.081       .  S
O39         Mg46   2.270       .  S
H41         C398   1.081       .  S
C42          O47   1.294       .  A
C42         C195   1.587       .  S
O43          C44   1.275       .  A
C44         C198   1.597       .  S
Mg46        O423   2.033   1_545  S
O49          C84   1.244       .  S
O49        Mg843   2.020       .  S
O49        Mg849   2.096       .  S
C50          O63   1.244       .  S
C50          O87   1.272       .  A
C50         H881   1.081       .  S
Mg51         O80   2.096       .  S
Mg51        O841   2.020   1_455  S
Mg51         O95   2.392       .  S
Mg51         O91   2.255       .  S
Mg51         O62   2.277       .  S
O52          C73   1.244       .  S
O52         Mg94   2.096       .  S
O52         Mg77   2.020       .  S
O53          C84   1.272       .  A
O53         Mg77   2.277       .  S
C54          O56   1.277       .  A
C54          O68   1.294       .  A
C54         C196   1.591       .  S
O55          C83   1.272       .  A
O55         Mg57   2.277       .  S
O56         Mg88   2.255       .  S
Mg57        O841   2.096   1_455  S
Mg57        O855   2.020   1_455  S
Mg57         O71   2.255       .  S
Mg57        O851   2.392   1_455  S
C58          O96   1.277       .  A
C58          O64   1.294       .  A
C58         C194   1.591       .  S
O59          C66   1.294       .  A
O59        Mg849   2.392       .  S
H60          C73   1.081       .  S
C61          O75   1.244       .  S
C61          O76   1.272       .  A
C61          H86   1.081       .  S
O62          C85   1.272       .  A
O63         Mg77   2.096       .  S
O63        Mg849   2.020       .  S
O64         Mg94   2.392       .  S
C65          O78   1.277       .  A
C65          O70   1.294       .  A
C65         C197   1.591       .  S
C66          O93   1.277       .  A
C66         C193   1.591       .  S
Mg67        O866   2.020       .  S
Mg67        O867   2.096       .  S
Mg67         O69   2.277       .  S
Mg67         O96   2.255       .  S
Mg67        O860   2.392       .  S
O68        Mg859   2.392   1_455  S
O69          C73   1.272       .  A
O70         Mg77   2.392       .  S
O71          C90   1.277       .  A
O72          C92   1.294       .  A
O72         Mg88   2.392       .  S
O74          C85   1.244       .  S
O74         Mg88   2.096       .  S
O74        Mg859   2.020   1_455  S
O75        Mg859   2.096   1_455  S
O75        Mg886   2.020   1_455  S
O76         Mg88   2.277       .  S
Mg77         O93   2.255       .  S
O78         Mg94   2.255       .  S
H79          C84   1.081       .  S
O80          C83   1.244       .  S
O80         Mg88   2.020       .  S
H81          C83   1.081       .  S
H82         C877   1.081       .  S
C85         H874   1.081   1_455  S
O87         Mg94   2.277       .  S
H89         C842   1.081   1_455  S
C90          O95   1.294       .  A
C90         C198   1.591       .  S
O91          C92   1.277       .  A
C92         C195   1.591       .  S
Mg94        O867   2.020       .  S
O97         C132   1.243       .  S
O97         Mg99   2.032       .  S
O97        Mg105   2.085       .  S
C98         O111   1.244       .  S
C98         O135   1.273       .  A
C98         H137   1.081       .  S
Mg99        O128   2.072       .  S
Mg99        O143   2.399       .  S
Mg99        O139   2.246       .  S
Mg99        O110   2.270       .  S
O100        C121   1.246       .  S
O100       Mg142   2.072       .  S
O100       Mg323   2.028       .  S
O101        C132   1.272       .  A
O101       Mg125   2.281       .  S
C102        O104   1.280       .  A
C102        O116   1.299       .  A
C102        C194   1.576       .  S
O103        C131   1.275       .  A
O103       Mg105   2.290       .  S
O104       Mg136   2.224       .  S
Mg105       O309   2.022   1_554  S
Mg105       O119   2.253       .  S
Mg105       O107   2.438       .  S
C106        O144   1.284       .  A
C106        O112   1.294       .  A
C106        C196   1.587       .  S
O107        C114   1.299       .  A
H108        C319   1.081   1_554  S
C109        O123   1.243       .  S
C109        O124   1.272       .  A
C109        H134   1.081       .  S
O110        C133   1.273       .  A
O111       Mg303   2.022       .  S
O111       Mg323   2.100       .  S
O112       Mg142   2.399       .  S
C113        O126   1.275       .  A
C113        O118   1.295       .  A
C113        C195   1.597       .  S
C114        O141   1.280       .  A
C114        C198   1.576       .  S
Mg115       O123   2.085       .  S
Mg115       O320   2.022       .  S
Mg115       O116   2.438       .  S
Mg115       O117   2.290       .  S
Mg115       O144   2.253       .  S
O117        C121   1.275       .  A
O118       Mg323   2.434       .  S
O119        C138   1.284       .  A
O120        C140   1.295       .  A
O120       Mg334   2.434   1_554  S
C121        H306   1.081       .  S
O122        C133   1.244       .  S
O122       Mg313   2.022   1_554  S
O122       Mg334   2.100   1_554  S
O123       Mg142   2.033       .  S
O124       Mg136   2.281       .  S
Mg125       O298   2.028   1_554  S
Mg125       O309   2.100   1_554  S
Mg125       O141   2.224       .  S
Mg125       O316   2.434   1_554  S
O126       Mg142   2.246       .  S
H127        C132   1.081       .  S
O128        C131   1.246       .  S
O128       Mg334   2.028   1_554  S
H129        C329   1.081       .  S
H130        C133   1.081       .  S
C131        H327   1.081   1_554  S
O135       Mg142   2.270       .  S
Mg136       O320   2.100       .  S
Mg136       O326   2.028       .  S
Mg136       O318   2.434       .  S
C138        O143   1.294       .  A
C138        C193   1.587       .  S
O139        C140   1.275       .  A
C140        C197   1.597       .  S
O145        C180   1.244       .  S
O145       Mg741   2.022   1_545  S
O145       Mg549   2.100   1_545  S
C146        O159   1.246       .  S
C146        O183   1.275       .  A
C146        H581   1.081   1_545  S
Mg147       O739   2.022   1_554  S
Mg147       O374   2.085   1_554  S
Mg147       O187   2.253       .  S
Mg147       O158   2.290       .  S
Mg147       O389   2.438   1_554  S
O148        C169   1.243       .  S
O148       Mg388   2.085   1_554  S
O148      Mg1163   2.033   1_554  S
O149        C180   1.273       .  A
O149       Mg173   2.270       .  S
C150        O152   1.275       .  A
C150        O164   1.295       .  A
C150        C193   1.597       .  S
O151        C179   1.272       .  A
O151       Mg153   2.281       .  S
O152       Mg184   2.246       .  S
Mg153       O541   2.100       .  S
Mg153      O1347   2.028   1_455  S
Mg153       O167   2.224       .  S
Mg153       O551   2.434       .  S
C154        O192   1.280       .  A
C154        O160   1.299       .  A
C154        C197   1.576       .  S
O155        C162   1.295       .  A
O155       Mg549   2.434   1_545  S
H156        C961   1.081   1_455  S
C157        O171   1.244       .  S
C157        O172   1.273       .  A
C157        H380   1.081       .  S
O158        C181   1.275       .  A
O159      Mg1341   2.028   1_545  S
O159       Mg965   2.072       .  S
O160       Mg388   2.438   1_554  S
C161        O174   1.284       .  A
C161        O166   1.294       .  A
C161        C194   1.587       .  S
C162        O189   1.275       .  A
C162        C196   1.597       .  S
Mg163      O1358   2.028   1_545  S
Mg163       O567   2.100   1_545  S
Mg163       O165   2.281       .  S
Mg163       O192   2.224       .  S
Mg163       O560   2.434   1_545  S
O164       Mg559   2.434       .  S
O165        C169   1.272       .  A
O166       Mg965   2.399       .  S
O167        C186   1.280       .  A
O168        C188   1.294       .  A
O168       Mg976   2.399   1_455  S
C169        H948   1.081       .  S
O170        C181   1.246       .  S
O170      Mg1351   2.028   1_455  S
O170       Mg976   2.072   1_455  S
O171       Mg559   2.100       .  S
O171       Mg784   2.022   1_554  S
O172       Mg184   2.270       .  S
Mg173      O1138   2.033   1_455  S
Mg173       O951   2.072   1_455  S
Mg173       O189   2.245       .  S
Mg173       O958   2.399   1_455  S
O174       Mg190   2.253       .  S
H175        C378   1.081       .  S
O176        C179   1.243       .  S
O176       Mg345   2.085       .  S
O176      Mg1174   2.032   1_455  S
H177        C971   1.081       .  S
H178        C577   1.081   1_545  S
C179        H969   1.081   1_455  S
C180        H373   1.081       .  S
C181        H574   1.081       .  S
H182        C355   1.081       .  S
O183       Mg190   2.290       .  S
Mg184       O962   2.072       .  S
Mg184      O1166   2.032   1_554  S
Mg184       O960   2.399       .  S
H185        C542   1.081       .  S
C186        O191   1.299       .  A
C186        C195   1.576       .  S
O187        C188   1.284       .  A
C188        C198   1.587       .  S
Mg190       O346   2.085       .  S
Mg190       O765   2.022   1_545  S
Mg190       O358   2.438       .  S
O191       Mg345   2.438       .  S
O199        C234   1.243       .  S
O199       Mg597   2.033   1_545  S
O199       Mg603   2.085   1_545  S
C200        O213   1.244       .  S
C200        O237   1.273       .  A
C200        H635   1.081       .  S
Mg201       O595   2.033       .  S
Mg201       O230   2.072       .  S
Mg201       O245   2.399       .  S
Mg201       O241   2.245       .  S
Mg201       O212   2.270       .  S
O202        C223   1.246       .  S
O202       Mg244   2.072       .  S
O202       Mg227   2.028       .  S
O203        C234   1.272       .  A
O203       Mg227   2.281       .  S
C204        O206   1.280       .  A
C204        O218   1.299       .  A
C204        C391   1.576       .  S
O205        C233   1.275       .  A
O205       Mg207   2.290       .  S
O206       Mg238   2.224       .  S
Mg207       O595   2.085       .  S
Mg207       O609   2.022       .  S
Mg207       O221   2.253       .  S
Mg207       O605   2.438       .  S
C208        O246   1.284       .  A
C208        O214   1.294       .  A
C208        C395   1.587       .  S
O209        C216   1.299       .  A
O209       Mg603   2.438   1_545  S
H210        C223   1.081       .  S
C211        O225   1.243       .  S
C211        O226   1.272       .  A
C211        H236   1.081       .  S
O212        C235   1.273       .  A
O213       Mg603   2.022   1_545  S
O213       Mg227   2.100       .  S
O214       Mg244   2.399       .  S
C215        O228   1.275       .  A
C215        O220   1.295       .  A
C215        C392   1.597       .  S
C216        O243   1.280       .  A
C216        C394   1.576       .  S
Mg217       O620   2.022   1_545  S
Mg217       O621   2.085   1_545  S
Mg217       O614   2.438   1_545  S
Mg217       O219   2.290       .  S
Mg217       O246   2.253       .  S
O218       Mg613   2.438       .  S
O219        C223   1.275       .  A
O220       Mg227   2.434       .  S
O221        C240   1.284       .  A
O222        C242   1.295       .  A
O222       Mg238   2.434       .  S
O224        C235   1.244       .  S
O224       Mg613   2.022       .  S
O224       Mg238   2.100       .  S
O225       Mg613   2.085       .  S
O225       Mg640   2.033       .  S
O226       Mg238   2.281       .  S
Mg227       O243   2.224       .  S
O228       Mg244   2.246       .  S
H229        C234   1.081       .  S
O230        C233   1.246       .  S
O230       Mg238   2.028       .  S
H231        C233   1.081       .  S
H232        C631   1.081       .  S
C235        H628   1.081       .  S
O237       Mg244   2.270       .  S
H239        C596   1.081       .  S
C240        O245   1.294       .  A
C240        C393   1.587       .  S
O241        C242   1.275       .  A
C242        C396   1.597       .  S
Mg244       O621   2.033   1_545  S
O247        C282   1.244       .  S
O247      Mg1041   2.020       .  S
O247      Mg1047   2.096       .  S
C248        O261   1.244       .  S
C248        O285   1.272       .  A
C248       H1079   1.081       .  S
Mg249      O1039   2.020   1_455  S
Mg249       O278   2.096       .  S
Mg249       O293   2.392       .  S
Mg249       O289   2.255       .  S
Mg249       O260   2.277       .  S
O250        C271   1.244       .  S
O250       Mg292   2.096       .  S
O250       Mg275   2.020       .  S
O251        C282   1.272       .  A
O251       Mg275   2.277       .  S
C252        O254   1.277       .  A
C252        O266   1.294       .  A
C252        C394   1.591       .  S
O253        C281   1.272       .  A
O253       Mg255   2.277       .  S
O254       Mg286   2.255       .  S
Mg255      O1039   2.096   1_455  S
Mg255      O1053   2.020   1_455  S
Mg255       O269   2.255       .  S
Mg255      O1049   2.392   1_455  S
C256        O294   1.277       .  A
C256        O262   1.294       .  A
C256        C392   1.591       .  S
O257        C264   1.294       .  A
O257      Mg1047   2.392       .  S
H258        C271   1.081       .  S
C259        O273   1.244       .  S
C259        O274   1.272       .  A
C259        H284   1.081       .  S
O260        C283   1.272       .  A
O261      Mg1047   2.020       .  S
O261       Mg275   2.096       .  S
O262       Mg292   2.392       .  S
C263        O276   1.277       .  A
C263        O268   1.294       .  A
C263        C395   1.591       .  S
C264        O291   1.277       .  A
C264        C391   1.591       .  S
Mg265      O1064   2.020       .  S
Mg265      O1065   2.096       .  S
Mg265      O1058   2.392       .  S
Mg265       O267   2.277       .  S
Mg265       O294   2.255       .  S
O266      Mg1057   2.392   1_455  S
O267        C271   1.272       .  A
O268       Mg275   2.392       .  S
O269        C288   1.277       .  A
O270        C290   1.294       .  A
O270       Mg286   2.392       .  S
O272        C283   1.244       .  S
O272      Mg1057   2.020   1_455  S
O272       Mg286   2.096       .  S
O273      Mg1057   2.096   1_455  S
O273      Mg1084   2.020   1_455  S
O274       Mg286   2.277       .  S
Mg275       O291   2.255       .  S
O276       Mg292   2.255       .  S
H277        C282   1.081       .  S
O278        C281   1.244       .  S
O278       Mg286   2.020       .  S
H279        C281   1.081       .  S
H280       C1075   1.081       .  S
C283       H1072   1.081   1_455  S
O285       Mg292   2.277       .  S
H287       C1040   1.081   1_455  S
C288        O293   1.294       .  A
C288        C396   1.591       .  S
O289        C290   1.277       .  A
C290        C393   1.591       .  S
Mg292      O1065   2.020       .  S
O295        C330   1.243       .  S
O295       Mg297   2.032       .  S
O295       Mg303   2.085       .  S
C296        O309   1.244       .  S
C296        O333   1.273       .  A
C296        H335   1.081       .  S
Mg297       O326   2.072       .  S
Mg297       O341   2.399       .  S
Mg297       O337   2.246       .  S
Mg297       O308   2.270       .  S
O298        C319   1.246       .  S
O298       Mg340   2.072       .  S
O299        C330   1.272       .  A
O299       Mg323   2.281       .  S
C300        O302   1.280       .  A
C300        O314   1.299       .  A
C300        C392   1.576       .  S
O301        C329   1.275       .  A
O301       Mg303   2.290       .  S
O302       Mg334   2.224       .  S
Mg303       O317   2.253       .  S
Mg303       O305   2.438       .  S
C304        O342   1.284       .  A
C304        O310   1.294       .  A
C304        C394   1.587       .  S
O305        C312   1.299       .  A
C307        O321   1.243       .  S
C307        O322   1.272       .  A
C307        H332   1.081       .  S
O308        C331   1.273       .  A
O310       Mg340   2.399       .  S
C311        O324   1.275       .  A
C311        O316   1.295       .  A
C311        C393   1.597       .  S
C312        O339   1.280       .  A
C312        C396   1.576       .  S
Mg313       O321   2.085       .  S
Mg313       O314   2.438       .  S
Mg313       O315   2.290       .  S
Mg313       O342   2.253       .  S
O315        C319   1.275       .  A
O317        C336   1.284       .  A
O318        C338   1.295       .  A
O320        C331   1.244       .  S
O321       Mg340   2.033       .  S
O322       Mg334   2.281       .  S
Mg323       O339   2.224       .  S
O324       Mg340   2.246       .  S
H325        C330   1.081       .  S
O326        C329   1.246       .  S
H328        C331   1.081       .  S
O333       Mg340   2.270       .  S
C336        O341   1.294       .  A
C336        C391   1.587       .  S
O337        C338   1.275       .  A
C338        C395   1.597       .  S
O343        C378   1.244       .  S
O343       Mg543   2.022   1_546  S
O343       Mg747   2.100   1_545  S
C344        O357   1.246       .  S
C344        O381   1.275       .  A
C344        H779   1.081   1_545  S
Mg345       O541   2.022       .  S
Mg345       O385   2.253       .  S
Mg345       O356   2.290       .  S
O346        C367   1.243       .  S
O346       Mg965   2.033       .  S
O347        C378   1.273       .  A
O347       Mg371   2.270       .  S
C348        O350   1.275       .  A
C348        O362   1.295       .  A
C348        C391   1.597       .  S
O349        C377   1.272       .  A
O349       Mg351   2.281       .  S
O350       Mg382   2.246       .  S
Mg351       O739   2.100       .  S
Mg351      O1545   2.028   1_455  S
Mg351       O365   2.224       .  S
Mg351       O749   2.434       .  S
C352        O390   1.280       .  A
C352        O358   1.299       .  A
C352        C395   1.576       .  S
O353        C360   1.295       .  A
O353       Mg747   2.434   1_545  S
H354       C1159   1.081   1_455  S
C355        O369   1.244       .  S
C355        O370   1.273       .  A
O356        C379   1.275       .  A
O357      Mg1539   2.028   1_545  S
O357      Mg1163   2.072       .  S
C359        O372   1.284       .  A
C359        O364   1.294       .  A
C359        C392   1.587       .  S
C360        O387   1.275       .  A
C360        C394   1.597       .  S
Mg361      O1556   2.028   1_545  S
Mg361       O765   2.100   1_545  S
Mg361       O758   2.434   1_545  S
Mg361       O363   2.281       .  S
Mg361       O390   2.224       .  S
O362       Mg757   2.434       .  S
O363        C367   1.272       .  A
O364      Mg1163   2.399       .  S
O365        C384   1.280       .  A
O366        C386   1.294       .  A
O366      Mg1174   2.399   1_455  S
C367       H1146   1.081       .  S
O368        C379   1.246       .  S
O368      Mg1549   2.028   1_455  S
O368      Mg1174   2.072   1_455  S
O369       Mg757   2.100       .  S
O369       Mg586   2.022       .  S
O370       Mg382   2.270       .  S
Mg371       O940   2.033   1_456  S
Mg371      O1149   2.072   1_455  S
Mg371      O1156   2.399   1_455  S
Mg371       O387   2.245       .  S
O372       Mg388   2.253       .  S
O374        C377   1.243       .  S
O374       Mg976   2.032   1_456  S
H375       C1169   1.081       .  S
H376        C775   1.081   1_545  S
C377       H1167   1.081   1_455  S
C379        H772   1.081       .  S
O381       Mg388   2.290       .  S
Mg382      O1160   2.072       .  S
Mg382       O968   2.032       .  S
Mg382      O1158   2.399       .  S
H383        C740   1.081       .  S
C384        O389   1.299       .  A
C384        C393   1.576       .  S
O385        C386   1.284       .  A
C386        C396   1.587       .  S
Mg388       O567   2.022   1_546  S
O397        C432   1.243       .  S
C398        O411   1.244       .  S
C398        O435   1.273       .  A
Mg399       O428   2.072       .  S
Mg399       O443   2.399       .  S
Mg399       O439   2.246       .  S
Mg399       O410   2.270       .  S
O400        C421   1.246       .  S
O400       Mg442   2.072       .  S
O400       Mg425   2.028       .  S
O401        C432   1.272       .  A
O401       Mg425   2.281       .  S
C402        O404   1.280       .  A
C402        O416   1.299       .  A
C402        C589   1.576       .  S
O403        C431   1.275       .  A
O403       Mg405   2.290       .  S
O404       Mg436   2.224       .  S
Mg405       O419   2.253       .  S
C406        O444   1.284       .  A
C406        O412   1.294       .  A
C406        C593   1.587       .  S
O407        C414   1.299       .  A
H408        C421   1.081       .  S
C409        O423   1.243       .  S
C409        O424   1.272       .  A
C409        H434   1.081       .  S
O410        C433   1.273       .  A
O411       Mg425   2.100       .  S
O412       Mg442   2.399       .  S
C413        O426   1.275       .  A
C413        O418   1.295       .  A
C413        C590   1.597       .  S
C414        O441   1.280       .  A
C414        C592   1.576       .  S
Mg415       O417   2.290       .  S
Mg415       O444   2.253       .  S
O417        C421   1.275       .  A
O418       Mg425   2.434       .  S
O419        C438   1.284       .  A
O420        C440   1.295       .  A
O420       Mg436   2.434       .  S
O422        C433   1.244       .  S
O422       Mg436   2.100       .  S
O424       Mg436   2.281       .  S
Mg425       O441   2.224       .  S
O426       Mg442   2.246       .  S
H427        C432   1.081       .  S
O428        C431   1.246       .  S
O428       Mg436   2.028       .  S
H429        C431   1.081       .  S
O435       Mg442   2.270       .  S
C438        O443   1.294       .  A
C438        C591   1.587       .  S
O439        C440   1.275       .  A
C440        C594   1.597       .  S
O445        C480   1.244       .  S
O445      Mg1239   2.020       .  S
O445      Mg1245   2.096       .  S
C446        O459   1.244       .  S
C446        O483   1.272       .  A
C446       H1277   1.081       .  S
Mg447      O1237   2.020   1_455  S
Mg447       O476   2.096       .  S
Mg447       O491   2.392       .  S
Mg447       O487   2.255       .  S
Mg447       O458   2.277       .  S
O448        C469   1.244       .  S
O448       Mg490   2.096       .  S
O448       Mg473   2.020       .  S
O449        C480   1.272       .  A
O449       Mg473   2.277       .  S
C450        O452   1.277       .  A
C450        O464   1.294       .  A
C450        C592   1.591       .  S
O451        C479   1.272       .  A
O451       Mg453   2.277       .  S
O452       Mg484   2.255       .  S
Mg453      O1237   2.096   1_455  S
Mg453      O1251   2.020   1_455  S
Mg453       O467   2.255       .  S
Mg453      O1247   2.392   1_455  S
C454        O492   1.277       .  A
C454        O460   1.294       .  A
C454        C590   1.591       .  S
O455        C462   1.294       .  A
O455      Mg1245   2.392       .  S
H456        C469   1.081       .  S
C457        O471   1.244       .  S
C457        O472   1.272       .  A
C457        H482   1.081       .  S
O458        C481   1.272       .  A
O459      Mg1245   2.020       .  S
O459       Mg473   2.096       .  S
O460       Mg490   2.392       .  S
C461        O474   1.277       .  A
C461        O466   1.294       .  A
C461        C593   1.591       .  S
C462        O489   1.277       .  A
C462        C589   1.591       .  S
Mg463      O1262   2.020       .  S
Mg463      O1263   2.096       .  S
Mg463      O1256   2.392       .  S
Mg463       O465   2.277       .  S
Mg463       O492   2.255       .  S
O464      Mg1255   2.392   1_455  S
O465        C469   1.272       .  A
O466       Mg473   2.392       .  S
O467        C486   1.277       .  A
O468        C488   1.294       .  A
O468       Mg484   2.392       .  S
O470        C481   1.244       .  S
O470      Mg1255   2.020   1_455  S
O470       Mg484   2.096       .  S
O471      Mg1255   2.096   1_455  S
O471      Mg1282   2.020   1_455  S
O472       Mg484   2.277       .  S
Mg473       O489   2.255       .  S
O474       Mg490   2.255       .  S
H475        C480   1.081       .  S
O476        C479   1.244       .  S
O476       Mg484   2.020       .  S
H477        C479   1.081       .  S
H478       C1273   1.081       .  S
C481       H1270   1.081   1_455  S
O483       Mg490   2.277       .  S
H485       C1238   1.081   1_455  S
C486        O491   1.294       .  A
C486        C594   1.591       .  S
O487        C488   1.277       .  A
C488        C591   1.591       .  S
Mg490      O1263   2.020       .  S
O493        C528   1.243       .  S
O493       Mg495   2.033       .  S
O493       Mg501   2.085       .  S
C494        O507   1.244       .  S
C494        O531   1.273       .  A
C494        H533   1.081       .  S
Mg495       O524   2.072       .  S
Mg495       O539   2.399       .  S
Mg495       O535   2.246       .  S
Mg495       O506   2.270       .  S
O496        C517   1.246       .  S
O496       Mg538   2.072       .  S
O496       Mg719   2.028       .  S
O497        C528   1.272       .  A
O497       Mg521   2.281       .  S
C498        O500   1.280       .  A
C498        O512   1.299       .  A
C498        C590   1.576       .  S
O499        C527   1.275       .  A
O499       Mg501   2.290       .  S
O500       Mg532   2.224       .  S
Mg501       O705   2.022   1_554  S
Mg501       O515   2.253       .  S
Mg501       O503   2.438       .  S
C502        O540   1.284       .  A
C502        O508   1.294       .  A
C502        C592   1.587       .  S
O503        C510   1.299       .  A
H504        C715   1.081   1_554  S
C505        O519   1.243       .  S
C505        O520   1.272       .  A
C505        H530   1.081       .  S
O506        C529   1.273       .  A
O507       Mg699   2.022       .  S
O507       Mg719   2.100       .  S
O508       Mg538   2.399       .  S
C509        O522   1.275       .  A
C509        O514   1.295       .  A
C509        C591   1.597       .  S
C510        O537   1.280       .  A
C510        C594   1.576       .  S
Mg511       O716   2.022       .  S
Mg511       O519   2.085       .  S
Mg511       O512   2.438       .  S
Mg511       O513   2.290       .  S
Mg511       O540   2.253       .  S
O513        C517   1.275       .  A
O514       Mg719   2.434       .  S
O515        C534   1.284       .  A
O516        C536   1.295       .  A
O516       Mg730   2.434   1_554  S
C517        H702   1.081       .  S
O518        C529   1.244       .  S
O518       Mg709   2.022   1_554  S
O518       Mg730   2.100   1_554  S
O519       Mg538   2.033       .  S
O520       Mg532   2.281       .  S
Mg521       O694   2.028   1_554  S
Mg521       O705   2.100   1_554  S
Mg521       O712   2.434   1_554  S
Mg521       O537   2.224       .  S
O522       Mg538   2.246       .  S
H523        C528   1.081       .  S
O524        C527   1.246       .  S
O524       Mg730   2.028   1_554  S
H525        C725   1.081       .  S
H526        C529   1.081       .  S
C527        H723   1.081   1_554  S
O531       Mg538   2.270       .  S
Mg532       O716   2.100       .  S
Mg532       O722   2.028       .  S
Mg532       O714   2.434       .  S
C534        O539   1.294       .  A
C534        C589   1.587       .  S
O535        C536   1.275       .  A
C536        C593   1.597       .  S
O541        C576   1.244       .  S
C542        O555   1.246       .  S
C542        O579   1.275       .  A
Mg543       O770   2.085   1_554  S
Mg543       O785   2.438   1_554  S
Mg543       O583   2.253       .  S
Mg543       O554   2.290       .  S
O544        C565   1.243       .  S
O544       Mg784   2.085   1_554  S
O544      Mg1559   2.033   1_554  S
O545        C576   1.273       .  A
O545       Mg569   2.270       .  S
C546        O548   1.275       .  A
C546        O560   1.295       .  A
C546        C589   1.597       .  S
O547        C575   1.272       .  A
O547       Mg549   2.281       .  S
O548       Mg580   2.246       .  S
Mg549       O951   2.028   1_465  S
Mg549       O563   2.224       .  S
C550        O588   1.280       .  A
C550        O556   1.299       .  A
C550        C593   1.576       .  S
O551        C558   1.295       .  A
H552       C1357   1.081   1_455  S
C553        O567   1.244       .  S
C553        O568   1.273       .  A
C553        H776   1.081       .  S
O554        C577   1.275       .  A
O555       Mg945   2.028       .  S
O555      Mg1361   2.072       .  S
O556       Mg784   2.438   1_554  S
C557        O570   1.284       .  A
C557        O562   1.294       .  A
C557        C590   1.587       .  S
C558        O585   1.275       .  A
C558        C592   1.597       .  S
Mg559       O962   2.028       .  S
Mg559       O561   2.281       .  S
Mg559       O588   2.224       .  S
O561        C565   1.272       .  A
O562      Mg1361   2.399       .  S
O563        C582   1.280       .  A
O564        C584   1.294       .  A
O564      Mg1372   2.399   1_455  S
C565       H1344   1.081       .  S
O566        C577   1.246       .  S
O566       Mg955   2.028   1_465  S
O566      Mg1372   2.072   1_455  S
O568       Mg580   2.270       .  S
Mg569      O1534   2.033   1_455  S
Mg569      O1347   2.072   1_455  S
Mg569      O1354   2.399   1_455  S
Mg569       O585   2.245       .  S
O570       Mg586   2.253       .  S
H571        C774   1.081       .  S
O572        C575   1.243       .  S
O572       Mg741   2.085       .  S
O572      Mg1570   2.032   1_455  S
H573       C1367   1.081       .  S
C575       H1365   1.081   1_455  S
C576        H769   1.081       .  S
H578        C751   1.081       .  S
O579       Mg586   2.290       .  S
Mg580      O1358   2.072       .  S
Mg580      O1562   2.032   1_554  S
Mg580      O1356   2.399       .  S
C582        O587   1.299       .  A
C582        C591   1.576       .  S
O583        C584   1.284       .  A
C584        C594   1.587       .  S
Mg586       O742   2.085       .  S
Mg586       O754   2.438       .  S
O587       Mg741   2.438       .  S
O595        C630   1.243       .  S
C596        O609   1.244       .  S
C596        O633   1.273       .  A
Mg597       O626   2.072       .  S
Mg597       O641   2.399       .  S
Mg597       O637   2.246       .  S
Mg597       O608   2.270       .  S
O598        C619   1.246       .  S
O598       Mg640   2.072       .  S
O598       Mg623   2.028       .  S
O599        C630   1.272       .  A
O599       Mg623   2.281       .  S
C600        O602   1.280       .  A
C600        O614   1.299       .  A
C600        C787   1.576       .  S
O601        C629   1.275       .  A
O601       Mg603   2.290       .  S
O602       Mg634   2.224       .  S
Mg603       O617   2.253       .  S
C604        O642   1.284       .  A
C604        O610   1.294       .  A
C604        C791   1.587       .  S
O605        C612   1.299       .  A
H606        C619   1.081       .  S
C607        O621   1.243       .  S
C607        O622   1.272       .  A
C607        H632   1.081       .  S
O608        C631   1.273       .  A
O609       Mg623   2.100       .  S
O610       Mg640   2.399       .  S
C611        O624   1.275       .  A
C611        O616   1.295       .  A
C611        C788   1.597       .  S
C612        O639   1.280       .  A
C612        C790   1.576       .  S
Mg613       O615   2.290       .  S
Mg613       O642   2.253       .  S
O615        C619   1.275       .  A
O616       Mg623   2.434       .  S
O617        C636   1.284       .  A
O618        C638   1.295       .  A
O618       Mg634   2.434       .  S
O620        C631   1.244       .  S
O620       Mg634   2.100       .  S
O622       Mg634   2.281       .  S
Mg623       O639   2.224       .  S
O624       Mg640   2.246       .  S
H625        C630   1.081       .  S
O626        C629   1.246       .  S
O626       Mg634   2.028       .  S
H627        C629   1.081       .  S
O633       Mg640   2.270       .  S
C636        O641   1.294       .  A
C636        C789   1.587       .  S
O637        C638   1.275       .  A
C638        C792   1.597       .  S
O643        C678   1.244       .  S
O643      Mg1437   2.020       .  S
O643      Mg1443   2.096       .  S
C644        O657   1.244       .  S
C644        O681   1.272       .  A
C644       H1475   1.081       .  S
Mg645      O1435   2.020   1_455  S
Mg645       O674   2.096       .  S
Mg645       O689   2.392       .  S
Mg645       O685   2.255       .  S
Mg645       O656   2.277       .  S
O646        C667   1.244       .  S
O646       Mg688   2.096       .  S
O646       Mg671   2.020       .  S
O647        C678   1.272       .  A
O647       Mg671   2.277       .  S
C648        O650   1.277       .  A
C648        O662   1.294       .  A
C648        C790   1.591       .  S
O649        C677   1.272       .  A
O649       Mg651   2.277       .  S
O650       Mg682   2.255       .  S
Mg651      O1435   2.096   1_455  S
Mg651      O1449   2.020   1_455  S
Mg651       O665   2.255       .  S
Mg651      O1445   2.392   1_455  S
C652        O690   1.277       .  A
C652        O658   1.294       .  A
C652        C788   1.591       .  S
O653        C660   1.294       .  A
O653      Mg1443   2.392       .  S
H654        C667   1.081       .  S
C655        O669   1.244       .  S
C655        O670   1.272       .  A
C655        H680   1.081       .  S
O656        C679   1.272       .  A
O657      Mg1443   2.020       .  S
O657       Mg671   2.096       .  S
O658       Mg688   2.392       .  S
C659        O672   1.277       .  A
C659        O664   1.294       .  A
C659        C791   1.591       .  S
C660        O687   1.277       .  A
C660        C787   1.591       .  S
Mg661      O1460   2.020       .  S
Mg661      O1461   2.096       .  S
Mg661      O1454   2.392       .  S
Mg661       O663   2.277       .  S
Mg661       O690   2.255       .  S
O662      Mg1453   2.392   1_455  S
O663        C667   1.272       .  A
O664       Mg671   2.392       .  S
O665        C684   1.277       .  A
O666        C686   1.294       .  A
O666       Mg682   2.392       .  S
O668        C679   1.244       .  S
O668      Mg1453   2.020   1_455  S
O668       Mg682   2.096       .  S
O669      Mg1453   2.096   1_455  S
O669      Mg1480   2.020   1_455  S
O670       Mg682   2.277       .  S
Mg671       O687   2.255       .  S
O672       Mg688   2.255       .  S
H673        C678   1.081       .  S
O674        C677   1.244       .  S
O674       Mg682   2.020       .  S
H675        C677   1.081       .  S
H676       C1471   1.081       .  S
C679       H1468   1.081   1_455  S
O681       Mg688   2.277       .  S
H683       C1436   1.081   1_455  S
C684        O689   1.294       .  A
C684        C792   1.591       .  S
O685        C686   1.277       .  A
C686        C789   1.591       .  S
Mg688      O1461   2.020       .  S
O691        C726   1.243       .  S
O691       Mg693   2.033       .  S
O691       Mg699   2.085       .  S
C692        O705   1.244       .  S
C692        O729   1.273       .  A
C692        H731   1.081       .  S
Mg693       O722   2.072       .  S
Mg693       O737   2.399       .  S
Mg693       O733   2.246       .  S
Mg693       O704   2.270       .  S
O694        C715   1.246       .  S
O694       Mg736   2.072       .  S
O695        C726   1.272       .  A
O695       Mg719   2.281       .  S
C696        O698   1.280       .  A
C696        O710   1.299       .  A
C696        C788   1.576       .  S
O697        C725   1.275       .  A
O697       Mg699   2.290       .  S
O698       Mg730   2.224       .  S
Mg699       O713   2.253       .  S
Mg699       O701   2.438       .  S
C700        O738   1.284       .  A
C700        O706   1.294       .  A
C700        C790   1.587       .  S
O701        C708   1.299       .  A
C703        O717   1.243       .  S
C703        O718   1.272       .  A
C703        H728   1.081       .  S
O704        C727   1.273       .  A
O706       Mg736   2.399       .  S
C707        O720   1.275       .  A
C707        O712   1.295       .  A
C707        C789   1.597       .  S
C708        O735   1.280       .  A
C708        C792   1.576       .  S
Mg709       O717   2.085       .  S
Mg709       O710   2.438       .  S
Mg709       O711   2.290       .  S
Mg709       O738   2.253       .  S
O711        C715   1.275       .  A
O713        C732   1.284       .  A
O714        C734   1.295       .  A
O716        C727   1.244       .  S
O717       Mg736   2.033       .  S
O718       Mg730   2.281       .  S
Mg719       O735   2.224       .  S
O720       Mg736   2.246       .  S
H721        C726   1.081       .  S
O722        C725   1.246       .  S
H724        C727   1.081       .  S
O729       Mg736   2.270       .  S
C732        O737   1.294       .  A
C732        C787   1.587       .  S
O733        C734   1.275       .  A
C734        C791   1.597       .  S
O739        C774   1.244       .  S
C740        O753   1.246       .  S
C740        O777   1.275       .  A
Mg741       O781   2.253       .  S
Mg741       O752   2.290       .  S
O742        C763   1.243       .  S
O742      Mg1361   2.033       .  S
O743        C774   1.273       .  A
O743       Mg767   2.270       .  S
C744        O746   1.275       .  A
C744        O758   1.295       .  A
C744        C787   1.597       .  S
O745        C773   1.272       .  A
O745       Mg747   2.281       .  S
O746       Mg778   2.246       .  S
Mg747      O1149   2.028   1_465  S
Mg747       O761   2.224       .  S
C748        O786   1.280       .  A
C748        O754   1.299       .  A
C748        C791   1.576       .  S
O749        C756   1.295       .  A
H750       C1555   1.081   1_455  S
C751        O765   1.244       .  S
C751        O766   1.273       .  A
O752        C775   1.275       .  A
O753      Mg1143   2.028       .  S
O753      Mg1559   2.072       .  S
C755        O768   1.284       .  A
C755        O760   1.294       .  A
C755        C788   1.587       .  S
C756        O783   1.275       .  A
C756        C790   1.597       .  S
Mg757      O1160   2.028       .  S
Mg757       O759   2.281       .  S
Mg757       O786   2.224       .  S
O759        C763   1.272       .  A
O760      Mg1559   2.399       .  S
O761        C780   1.280       .  A
O762        C782   1.294       .  A
O762      Mg1570   2.399   1_455  S
C763       H1542   1.081       .  S
O764        C775   1.246       .  S
O764      Mg1153   2.028   1_465  S
O764      Mg1570   2.072   1_455  S
O766       Mg778   2.270       .  S
Mg767      O1336   2.033   1_456  S
Mg767      O1545   2.072   1_455  S
Mg767      O1552   2.399   1_455  S
Mg767       O783   2.245       .  S
O768       Mg784   2.253       .  S
O770        C773   1.243       .  S
O770      Mg1372   2.032   1_456  S
H771       C1565   1.081       .  S
C773       H1563   1.081   1_455  S
O777       Mg784   2.290       .  S
Mg778      O1556   2.072       .  S
Mg778      O1364   2.032       .  S
Mg778      O1554   2.399       .  S
C780        O785   1.299       .  A
C780        C789   1.576       .  S
O781        C782   1.284       .  A
C782        C792   1.587       .  S
O793        C828   1.243       .  S
O793      Mg1191   2.033   1_545  S
O793      Mg1197   2.085   1_545  S
C794        O807   1.244       .  S
C794        O831   1.273       .  A
C794       H1229   1.081       .  S
Mg795      O1189   2.033       .  S
Mg795       O824   2.072       .  S
Mg795       O839   2.399       .  S
Mg795       O835   2.245       .  S
Mg795       O806   2.270       .  S
O796        C817   1.246       .  S
O796       Mg838   2.072       .  S
O796       Mg821   2.028       .  S
O797        C828   1.272       .  A
O797       Mg821   2.281       .  S
C798        O800   1.280       .  A
C798        O812   1.299       .  A
C798        C985   1.576       .  S
O799        C827   1.275       .  A
O799       Mg801   2.290       .  S
O800       Mg832   2.224       .  S
Mg801      O1189   2.085       .  S
Mg801      O1203   2.022       .  S
Mg801       O815   2.253       .  S
Mg801      O1199   2.438       .  S
C802        O840   1.284       .  A
C802        O808   1.294       .  A
C802        C989   1.587       .  S
O803        C810   1.299       .  A
O803      Mg1197   2.438   1_545  S
H804        C817   1.081       .  S
C805        O819   1.243       .  S
C805        O820   1.272       .  A
C805        H830   1.081       .  S
O806        C829   1.273       .  A
O807      Mg1197   2.022   1_545  S
O807       Mg821   2.100       .  S
O808       Mg838   2.399       .  S
C809        O822   1.275       .  A
C809        O814   1.295       .  A
C809        C986   1.597       .  S
C810        O837   1.280       .  A
C810        C988   1.576       .  S
Mg811      O1214   2.022   1_545  S
Mg811      O1215   2.085   1_545  S
Mg811      O1208   2.438   1_545  S
Mg811       O813   2.290       .  S
Mg811       O840   2.253       .  S
O812      Mg1207   2.438       .  S
O813        C817   1.275       .  A
O814       Mg821   2.434       .  S
O815        C834   1.284       .  A
O816        C836   1.295       .  A
O816       Mg832   2.434       .  S
O818        C829   1.244       .  S
O818      Mg1207   2.022       .  S
O818       Mg832   2.100       .  S
O819      Mg1207   2.085       .  S
O819      Mg1234   2.033       .  S
O820       Mg832   2.281       .  S
Mg821       O837   2.224       .  S
O822       Mg838   2.246       .  S
H823        C828   1.081       .  S
O824        C827   1.246       .  S
O824       Mg832   2.028       .  S
H825        C827   1.081       .  S
H826       C1225   1.081       .  S
C829       H1222   1.081       .  S
O831       Mg838   2.270       .  S
H833       C1190   1.081       .  S
C834        O839   1.294       .  A
C834        C987   1.587       .  S
O835        C836   1.275       .  A
C836        C990   1.597       .  S
Mg838      O1215   2.033   1_545  S
O841        C876   1.244       .  S
C842        O855   1.244       .  S
C842        O879   1.272       .  A
Mg843       O872   2.096       .  S
Mg843       O887   2.392       .  S
Mg843       O883   2.255       .  S
Mg843       O854   2.277       .  S
O844        C865   1.244       .  S
O844       Mg886   2.096       .  S
O844       Mg869   2.020       .  S
O845        C876   1.272       .  A
O845       Mg869   2.277       .  S
C846        O848   1.277       .  A
C846        O860   1.294       .  A
C846        C988   1.591       .  S
O847        C875   1.272       .  A
O847       Mg849   2.277       .  S
O848       Mg880   2.255       .  S
Mg849       O863   2.255       .  S
C850        O888   1.277       .  A
C850        O856   1.294       .  A
C850        C986   1.591       .  S
O851        C858   1.294       .  A
H852        C865   1.081       .  S
C853        O867   1.244       .  S
C853        O868   1.272       .  A
C853        H878   1.081       .  S
O854        C877   1.272       .  A
O855       Mg869   2.096       .  S
O856       Mg886   2.392       .  S
C857        O870   1.277       .  A
C857        O862   1.294       .  A
C857        C989   1.591       .  S
C858        O885   1.277       .  A
C858        C985   1.591       .  S
Mg859       O861   2.277       .  S
Mg859       O888   2.255       .  S
O861        C865   1.272       .  A
O862       Mg869   2.392       .  S
O863        C882   1.277       .  A
O864        C884   1.294       .  A
O864       Mg880   2.392       .  S
O866        C877   1.244       .  S
O866       Mg880   2.096       .  S
O868       Mg880   2.277       .  S
Mg869       O885   2.255       .  S
O870       Mg886   2.255       .  S
H871        C876   1.081       .  S
O872        C875   1.244       .  S
O872       Mg880   2.020       .  S
H873        C875   1.081       .  S
O879       Mg886   2.277       .  S
C882        O887   1.294       .  A
C882        C990   1.591       .  S
O883        C884   1.277       .  A
C884        C987   1.591       .  S
O889        C924   1.243       .  S
O889       Mg891   2.032       .  S
O889       Mg897   2.085       .  S
C890        O903   1.244       .  S
C890        O927   1.273       .  A
C890        H929   1.081       .  S
Mg891       O920   2.072       .  S
Mg891       O935   2.399       .  S
Mg891       O931   2.246       .  S
Mg891       O902   2.270       .  S
O892        C913   1.246       .  S
O892       Mg934   2.072       .  S
O892      Mg1115   2.028       .  S
O893        C924   1.272       .  A
O893       Mg917   2.281       .  S
C894        O896   1.280       .  A
C894        O908   1.299       .  A
C894        C986   1.576       .  S
O895        C923   1.275       .  A
O895       Mg897   2.290       .  S
O896       Mg928   2.224       .  S
Mg897      O1101   2.022   1_554  S
Mg897       O911   2.253       .  S
Mg897       O899   2.438       .  S
C898        O936   1.284       .  A
C898        O904   1.294       .  A
C898        C988   1.587       .  S
O899        C906   1.299       .  A
H900       C1111   1.081   1_554  S
C901        O915   1.243       .  S
C901        O916   1.272       .  A
C901        H926   1.081       .  S
O902        C925   1.273       .  A
O903      Mg1095   2.022       .  S
O903      Mg1115   2.100       .  S
O904       Mg934   2.399       .  S
C905        O918   1.275       .  A
C905        O910   1.295       .  A
C905        C987   1.597       .  S
C906        O933   1.280       .  A
C906        C990   1.576       .  S
Mg907      O1112   2.022       .  S
Mg907       O915   2.085       .  S
Mg907       O908   2.438       .  S
Mg907       O909   2.290       .  S
Mg907       O936   2.253       .  S
O909        C913   1.275       .  A
O910      Mg1115   2.434       .  S
O911        C930   1.284       .  A
O912        C932   1.295       .  A
O912      Mg1126   2.434   1_554  S
C913       H1098   1.081       .  S
O914        C925   1.244       .  S
O914      Mg1105   2.022   1_554  S
O914      Mg1126   2.100   1_554  S
O915       Mg934   2.033       .  S
O916       Mg928   2.281       .  S
Mg917      O1090   2.028   1_554  S
Mg917      O1101   2.100   1_554  S
Mg917      O1108   2.434   1_554  S
Mg917       O933   2.224       .  S
O918       Mg934   2.246       .  S
H919        C924   1.081       .  S
O920        C923   1.246       .  S
O920      Mg1126   2.028   1_554  S
H921       C1121   1.081       .  S
H922        C925   1.081       .  S
C923       H1119   1.081   1_554  S
O927       Mg934   2.270       .  S
Mg928      O1112   2.100       .  S
Mg928      O1118   2.028       .  S
Mg928      O1110   2.434       .  S
C930        O935   1.294       .  A
C930        C985   1.587       .  S
O931        C932   1.275       .  A
C932        C989   1.597       .  S
O937        C972   1.244       .  S
O937      Mg1533   2.022   1_545  S
O937      Mg1341   2.100   1_545  S
C938        O951   1.246       .  S
C938        O975   1.275       .  A
C938       H1373   1.081   1_545  S
Mg939      O1531   2.022   1_554  S
Mg939      O1166   2.085   1_554  S
Mg939      O1181   2.438   1_554  S
Mg939       O979   2.253       .  S
Mg939       O950   2.290       .  S
O940        C961   1.243       .  S
O940      Mg1180   2.085   1_554  S
O941        C972   1.273       .  A
O941       Mg965   2.270       .  S
C942        O944   1.275       .  A
C942        O956   1.295       .  A
C942        C985   1.597       .  S
O943        C971   1.272       .  A
O943       Mg945   2.281       .  S
O944       Mg976   2.246       .  S
Mg945      O1333   2.100       .  S
Mg945       O959   2.224       .  S
Mg945      O1343   2.434       .  S
C946        O984   1.280       .  A
C946        O952   1.299       .  A
C946        C989   1.576       .  S
O947        C954   1.295       .  A
O947      Mg1341   2.434   1_545  S
C949        O963   1.244       .  S
C949        O964   1.273       .  A
C949       H1172   1.081       .  S
O950        C973   1.275       .  A
O952      Mg1180   2.438   1_554  S
C953        O966   1.284       .  A
C953        O958   1.294       .  A
C953        C986   1.587       .  S
C954        O981   1.275       .  A
C954        C988   1.597       .  S
Mg955      O1359   2.100   1_545  S
Mg955      O1352   2.434   1_545  S
Mg955       O957   2.281       .  S
Mg955       O984   2.224       .  S
O956      Mg1351   2.434       .  S
O957        C961   1.272       .  A
O959        C978   1.280       .  A
O960        C980   1.294       .  A
O962        C973   1.246       .  S
O963      Mg1351   2.100       .  S
O963      Mg1576   2.022   1_554  S
O964       Mg976   2.270       .  S
Mg965       O981   2.245       .  S
O966       Mg982   2.253       .  S
H967       C1170   1.081       .  S
O968        C971   1.243       .  S
O968      Mg1137   2.085       .  S
H970       C1369   1.081   1_545  S
C972       H1165   1.081       .  S
C973       H1366   1.081       .  S
H974       C1147   1.081       .  S
O975       Mg982   2.290       .  S
H977       C1334   1.081       .  S
C978        O983   1.299       .  A
C978        C987   1.576       .  S
O979        C980   1.284       .  A
C980        C990   1.587       .  S
Mg982      O1138   2.085       .  S
Mg982      O1557   2.022   1_545  S
Mg982      O1150   2.438       .  S
O983      Mg1137   2.438       .  S
O991       C1026   1.243       .  S
O991      Mg1389   2.033   1_545  S
O991      Mg1395   2.085   1_545  S
C992       O1005   1.244       .  S
C992       O1029   1.273       .  A
C992       H1427   1.081       .  S
Mg993      O1387   2.033       .  S
Mg993      O1022   2.072       .  S
Mg993      O1037   2.399       .  S
Mg993      O1033   2.245       .  S
Mg993      O1004   2.270       .  S
O994       C1015   1.246       .  S
O994      Mg1036   2.072       .  S
O994      Mg1019   2.028       .  S
O995       C1026   1.272       .  A
O995      Mg1019   2.281       .  S
C996        O998   1.280       .  A
C996       O1010   1.299       .  A
C996       C1183   1.576       .  S
O997       C1025   1.275       .  A
O997       Mg999   2.290       .  S
O998      Mg1030   2.224       .  S
Mg999      O1387   2.085       .  S
Mg999      O1401   2.022       .  S
Mg999      O1013   2.253       .  S
Mg999      O1397   2.438       .  S
C1000      O1038   1.284       .  A
C1000      O1006   1.294       .  A
C1000      C1187   1.587       .  S
O1001      C1008   1.299       .  A
O1001     Mg1395   2.438   1_545  S
H1002      C1015   1.081       .  S
C1003      O1017   1.243       .  S
C1003      O1018   1.272       .  A
C1003      H1028   1.081       .  S
O1004      C1027   1.273       .  A
O1005     Mg1395   2.022   1_545  S
O1005     Mg1019   2.100       .  S
O1006     Mg1036   2.399       .  S
C1007      O1020   1.275       .  A
C1007      O1012   1.295       .  A
C1007      C1184   1.597       .  S
C1008      O1035   1.280       .  A
C1008      C1186   1.576       .  S
Mg1009     O1412   2.022   1_545  S
Mg1009     O1413   2.085   1_545  S
Mg1009     O1406   2.438   1_545  S
Mg1009     O1011   2.290       .  S
Mg1009     O1038   2.253       .  S
O1010     Mg1405   2.438       .  S
O1011      C1015   1.275       .  A
O1012     Mg1019   2.434       .  S
O1013      C1032   1.284       .  A
O1014      C1034   1.295       .  A
O1014     Mg1030   2.434       .  S
O1016      C1027   1.244       .  S
O1016     Mg1405   2.022       .  S
O1016     Mg1030   2.100       .  S
O1017     Mg1405   2.085       .  S
O1017     Mg1432   2.033       .  S
O1018     Mg1030   2.281       .  S
Mg1019     O1035   2.224       .  S
O1020     Mg1036   2.246       .  S
H1021      C1026   1.081       .  S
O1022      C1025   1.246       .  S
O1022     Mg1030   2.028       .  S
H1023      C1025   1.081       .  S
H1024      C1423   1.081       .  S
C1027      H1420   1.081       .  S
O1029     Mg1036   2.270       .  S
H1031      C1388   1.081       .  S
C1032      O1037   1.294       .  A
C1032      C1185   1.587       .  S
O1033      C1034   1.275       .  A
C1034      C1188   1.597       .  S
Mg1036     O1413   2.033   1_545  S
O1039      C1074   1.244       .  S
C1040      O1053   1.244       .  S
C1040      O1077   1.272       .  A
Mg1041     O1070   2.096       .  S
Mg1041     O1085   2.392       .  S
Mg1041     O1081   2.255       .  S
Mg1041     O1052   2.277       .  S
O1042      C1063   1.244       .  S
O1042     Mg1084   2.096       .  S
O1042     Mg1067   2.020       .  S
O1043      C1074   1.272       .  A
O1043     Mg1067   2.277       .  S
C1044      O1046   1.277       .  A
C1044      O1058   1.294       .  A
C1044      C1186   1.591       .  S
O1045      C1073   1.272       .  A
O1045     Mg1047   2.277       .  S
O1046     Mg1078   2.255       .  S
Mg1047     O1061   2.255       .  S
C1048      O1086   1.277       .  A
C1048      O1054   1.294       .  A
C1048      C1184   1.591       .  S
O1049      C1056   1.294       .  A
H1050      C1063   1.081       .  S
C1051      O1065   1.244       .  S
C1051      O1066   1.272       .  A
C1051      H1076   1.081       .  S
O1052      C1075   1.272       .  A
O1053     Mg1067   2.096       .  S
O1054     Mg1084   2.392       .  S
C1055      O1068   1.277       .  A
C1055      O1060   1.294       .  A
C1055      C1187   1.591       .  S
C1056      O1083   1.277       .  A
C1056      C1183   1.591       .  S
Mg1057     O1059   2.277       .  S
Mg1057     O1086   2.255       .  S
O1059      C1063   1.272       .  A
O1060     Mg1067   2.392       .  S
O1061      C1080   1.277       .  A
O1062      C1082   1.294       .  A
O1062     Mg1078   2.392       .  S
O1064      C1075   1.244       .  S
O1064     Mg1078   2.096       .  S
O1066     Mg1078   2.277       .  S
Mg1067     O1083   2.255       .  S
O1068     Mg1084   2.255       .  S
H1069      C1074   1.081       .  S
O1070      C1073   1.244       .  S
O1070     Mg1078   2.020       .  S
H1071      C1073   1.081       .  S
O1077     Mg1084   2.277       .  S
C1080      O1085   1.294       .  A
C1080      C1188   1.591       .  S
O1081      C1082   1.277       .  A
C1082      C1185   1.591       .  S
O1087      C1122   1.243       .  S
O1087     Mg1089   2.032       .  S
O1087     Mg1095   2.085       .  S
C1088      O1101   1.244       .  S
C1088      O1125   1.273       .  A
C1088      H1127   1.081       .  S
Mg1089     O1118   2.072       .  S
Mg1089     O1133   2.399       .  S
Mg1089     O1129   2.246       .  S
Mg1089     O1100   2.270       .  S
O1090      C1111   1.246       .  S
O1090     Mg1132   2.072       .  S
O1091      C1122   1.272       .  A
O1091     Mg1115   2.281       .  S
C1092      O1094   1.280       .  A
C1092      O1106   1.299       .  A
C1092      C1184   1.576       .  S
O1093      C1121   1.275       .  A
O1093     Mg1095   2.290       .  S
O1094     Mg1126   2.224       .  S
Mg1095     O1109   2.253       .  S
Mg1095     O1097   2.438       .  S
C1096      O1134   1.284       .  A
C1096      O1102   1.294       .  A
C1096      C1186   1.587       .  S
O1097      C1104   1.299       .  A
C1099      O1113   1.243       .  S
C1099      O1114   1.272       .  A
C1099      H1124   1.081       .  S
O1100      C1123   1.273       .  A
O1102     Mg1132   2.399       .  S
C1103      O1116   1.275       .  A
C1103      O1108   1.295       .  A
C1103      C1185   1.597       .  S
C1104      O1131   1.280       .  A
C1104      C1188   1.576       .  S
Mg1105     O1113   2.085       .  S
Mg1105     O1106   2.438       .  S
Mg1105     O1107   2.290       .  S
Mg1105     O1134   2.253       .  S
O1107      C1111   1.275       .  A
O1109      C1128   1.284       .  A
O1110      C1130   1.295       .  A
O1112      C1123   1.244       .  S
O1113     Mg1132   2.033       .  S
O1114     Mg1126   2.281       .  S
Mg1115     O1131   2.224       .  S
O1116     Mg1132   2.246       .  S
H1117      C1122   1.081       .  S
O1118      C1121   1.246       .  S
H1120      C1123   1.081       .  S
O1125     Mg1132   2.270       .  S
C1128      O1133   1.294       .  A
C1128      C1183   1.587       .  S
O1129      C1130   1.275       .  A
C1130      C1187   1.597       .  S
O1135      C1170   1.244       .  S
O1135     Mg1335   2.022   1_546  S
O1135     Mg1539   2.100   1_545  S
C1136      O1149   1.246       .  S
C1136      O1173   1.275       .  A
C1136      H1571   1.081   1_545  S
Mg1137     O1333   2.022       .  S
Mg1137     O1177   2.253       .  S
Mg1137     O1148   2.290       .  S
O1138      C1159   1.243       .  S
O1139      C1170   1.273       .  A
O1139     Mg1163   2.270       .  S
C1140      O1142   1.275       .  A
C1140      O1154   1.295       .  A
C1140      C1183   1.597       .  S
O1141      C1169   1.272       .  A
O1141     Mg1143   2.281       .  S
O1142     Mg1174   2.246       .  S
Mg1143     O1531   2.100       .  S
Mg1143     O1157   2.224       .  S
Mg1143     O1541   2.434       .  S
C1144      O1182   1.280       .  A
C1144      O1150   1.299       .  A
C1144      C1187   1.576       .  S
O1145      C1152   1.295       .  A
O1145     Mg1539   2.434   1_545  S
C1147      O1161   1.244       .  S
C1147      O1162   1.273       .  A
O1148      C1171   1.275       .  A
C1151      O1164   1.284       .  A
C1151      O1156   1.294       .  A
C1151      C1184   1.587       .  S
C1152      O1179   1.275       .  A
C1152      C1186   1.597       .  S
Mg1153     O1557   2.100   1_545  S
Mg1153     O1550   2.434   1_545  S
Mg1153     O1155   2.281       .  S
Mg1153     O1182   2.224       .  S
O1154     Mg1549   2.434       .  S
O1155      C1159   1.272       .  A
O1157      C1176   1.280       .  A
O1158      C1178   1.294       .  A
O1160      C1171   1.246       .  S
O1161     Mg1549   2.100       .  S
O1161     Mg1378   2.022       .  S
O1162     Mg1174   2.270       .  S
Mg1163     O1179   2.245       .  S
O1164     Mg1180   2.253       .  S
O1166      C1169   1.243       .  S
H1168      C1567   1.081   1_545  S
C1171      H1564   1.081       .  S
O1173     Mg1180   2.290       .  S
H1175      C1532   1.081       .  S
C1176      O1181   1.299       .  A
C1176      C1185   1.576       .  S
O1177      C1178   1.284       .  A
C1178      C1188   1.587       .  S
Mg1180     O1359   2.022   1_546  S
O1189      C1224   1.243       .  S
C1190      O1203   1.244       .  S
C1190      O1227   1.273       .  A
Mg1191     O1220   2.072       .  S
Mg1191     O1235   2.399       .  S
Mg1191     O1231   2.246       .  S
Mg1191     O1202   2.270       .  S
O1192      C1213   1.246       .  S
O1192     Mg1234   2.072       .  S
O1192     Mg1217   2.028       .  S
O1193      C1224   1.272       .  A
O1193     Mg1217   2.281       .  S
C1194      O1196   1.280       .  A
C1194      O1208   1.299       .  A
C1194      C1381   1.576       .  S
O1195      C1223   1.275       .  A
O1195     Mg1197   2.290       .  S
O1196     Mg1228   2.224       .  S
Mg1197     O1211   2.253       .  S
C1198      O1236   1.284       .  A
C1198      O1204   1.294       .  A
C1198      C1385   1.587       .  S
O1199      C1206   1.299       .  A
H1200      C1213   1.081       .  S
C1201      O1215   1.243       .  S
C1201      O1216   1.272       .  A
C1201      H1226   1.081       .  S
O1202      C1225   1.273       .  A
O1203     Mg1217   2.100       .  S
O1204     Mg1234   2.399       .  S
C1205      O1218   1.275       .  A
C1205      O1210   1.295       .  A
C1205      C1382   1.597       .  S
C1206      O1233   1.280       .  A
C1206      C1384   1.576       .  S
Mg1207     O1209   2.290       .  S
Mg1207     O1236   2.253       .  S
O1209      C1213   1.275       .  A
O1210     Mg1217   2.434       .  S
O1211      C1230   1.284       .  A
O1212      C1232   1.295       .  A
O1212     Mg1228   2.434       .  S
O1214      C1225   1.244       .  S
O1214     Mg1228   2.100       .  S
O1216     Mg1228   2.281       .  S
Mg1217     O1233   2.224       .  S
O1218     Mg1234   2.246       .  S
H1219      C1224   1.081       .  S
O1220      C1223   1.246       .  S
O1220     Mg1228   2.028       .  S
H1221      C1223   1.081       .  S
O1227     Mg1234   2.270       .  S
C1230      O1235   1.294       .  A
C1230      C1383   1.587       .  S
O1231      C1232   1.275       .  A
C1232      C1386   1.597       .  S
O1237      C1272   1.244       .  S
C1238      O1251   1.244       .  S
C1238      O1275   1.272       .  A
Mg1239     O1268   2.096       .  S
Mg1239     O1283   2.392       .  S
Mg1239     O1279   2.255       .  S
Mg1239     O1250   2.277       .  S
O1240      C1261   1.244       .  S
O1240     Mg1282   2.096       .  S
O1240     Mg1265   2.020       .  S
O1241      C1272   1.272       .  A
O1241     Mg1265   2.277       .  S
C1242      O1244   1.277       .  A
C1242      O1256   1.294       .  A
C1242      C1384   1.591       .  S
O1243      C1271   1.272       .  A
O1243     Mg1245   2.277       .  S
O1244     Mg1276   2.255       .  S
Mg1245     O1259   2.255       .  S
C1246      O1284   1.277       .  A
C1246      O1252   1.294       .  A
C1246      C1382   1.591       .  S
O1247      C1254   1.294       .  A
H1248      C1261   1.081       .  S
C1249      O1263   1.244       .  S
C1249      O1264   1.272       .  A
C1249      H1274   1.081       .  S
O1250      C1273   1.272       .  A
O1251     Mg1265   2.096       .  S
O1252     Mg1282   2.392       .  S
C1253      O1266   1.277       .  A
C1253      O1258   1.294       .  A
C1253      C1385   1.591       .  S
C1254      O1281   1.277       .  A
C1254      C1381   1.591       .  S
Mg1255     O1257   2.277       .  S
Mg1255     O1284   2.255       .  S
O1257      C1261   1.272       .  A
O1258     Mg1265   2.392       .  S
O1259      C1278   1.277       .  A
O1260      C1280   1.294       .  A
O1260     Mg1276   2.392       .  S
O1262      C1273   1.244       .  S
O1262     Mg1276   2.096       .  S
O1264     Mg1276   2.277       .  S
Mg1265     O1281   2.255       .  S
O1266     Mg1282   2.255       .  S
H1267      C1272   1.081       .  S
O1268      C1271   1.244       .  S
O1268     Mg1276   2.020       .  S
H1269      C1271   1.081       .  S
O1275     Mg1282   2.277       .  S
C1278      O1283   1.294       .  A
C1278      C1386   1.591       .  S
O1279      C1280   1.277       .  A
C1280      C1383   1.591       .  S
O1285      C1320   1.243       .  S
O1285     Mg1287   2.033       .  S
O1285     Mg1293   2.085       .  S
C1286      O1299   1.244       .  S
C1286      O1323   1.273       .  A
C1286      H1325   1.081       .  S
Mg1287     O1316   2.072       .  S
Mg1287     O1331   2.399       .  S
Mg1287     O1327   2.246       .  S
Mg1287     O1298   2.270       .  S
O1288      C1309   1.246       .  S
O1288     Mg1330   2.072       .  S
O1288     Mg1511   2.028       .  S
O1289      C1320   1.272       .  A
O1289     Mg1313   2.281       .  S
C1290      O1292   1.280       .  A
C1290      O1304   1.299       .  A
C1290      C1382   1.576       .  S
O1291      C1319   1.275       .  A
O1291     Mg1293   2.290       .  S
O1292     Mg1324   2.224       .  S
Mg1293     O1497   2.022   1_554  S
Mg1293     O1307   2.253       .  S
Mg1293     O1295   2.438       .  S
C1294      O1332   1.284       .  A
C1294      O1300   1.294       .  A
C1294      C1384   1.587       .  S
O1295      C1302   1.299       .  A
H1296      C1507   1.081   1_554  S
C1297      O1311   1.243       .  S
C1297      O1312   1.272       .  A
C1297      H1322   1.081       .  S
O1298      C1321   1.273       .  A
O1299     Mg1491   2.022       .  S
O1299     Mg1511   2.100       .  S
O1300     Mg1330   2.399       .  S
C1301      O1314   1.275       .  A
C1301      O1306   1.295       .  A
C1301      C1383   1.597       .  S
C1302      O1329   1.280       .  A
C1302      C1386   1.576       .  S
Mg1303     O1508   2.022       .  S
Mg1303     O1311   2.085       .  S
Mg1303     O1304   2.438       .  S
Mg1303     O1305   2.290       .  S
Mg1303     O1332   2.253       .  S
O1305      C1309   1.275       .  A
O1306     Mg1511   2.434       .  S
O1307      C1326   1.284       .  A
O1308      C1328   1.295       .  A
O1308     Mg1522   2.434   1_554  S
C1309      H1494   1.081       .  S
O1310      C1321   1.244       .  S
O1310     Mg1501   2.022   1_554  S
O1310     Mg1522   2.100   1_554  S
O1311     Mg1330   2.033       .  S
O1312     Mg1324   2.281       .  S
Mg1313     O1486   2.028   1_554  S
Mg1313     O1497   2.100   1_554  S
Mg1313     O1504   2.434   1_554  S
Mg1313     O1329   2.224       .  S
O1314     Mg1330   2.246       .  S
H1315      C1320   1.081       .  S
O1316      C1319   1.246       .  S
O1316     Mg1522   2.028   1_554  S
H1317      C1517   1.081       .  S
H1318      C1321   1.081       .  S
C1319      H1515   1.081   1_554  S
O1323     Mg1330   2.270       .  S
Mg1324     O1508   2.100       .  S
Mg1324     O1514   2.028       .  S
Mg1324     O1506   2.434       .  S
C1326      O1331   1.294       .  A
C1326      C1381   1.587       .  S
O1327      C1328   1.275       .  A
C1328      C1385   1.597       .  S
O1333      C1368   1.244       .  S
C1334      O1347   1.246       .  S
C1334      O1371   1.275       .  A
Mg1335     O1562   2.085   1_554  S
Mg1335     O1577   2.438   1_554  S
Mg1335     O1375   2.253       .  S
Mg1335     O1346   2.290       .  S
O1336      C1357   1.243       .  S
O1336     Mg1576   2.085   1_554  S
O1337      C1368   1.273       .  A
O1337     Mg1361   2.270       .  S
C1338      O1340   1.275       .  A
C1338      O1352   1.295       .  A
C1338      C1381   1.597       .  S
O1339      C1367   1.272       .  A
O1339     Mg1341   2.281       .  S
O1340     Mg1372   2.246       .  S
Mg1341     O1355   2.224       .  S
C1342      O1380   1.280       .  A
C1342      O1348   1.299       .  A
C1342      C1385   1.576       .  S
O1343      C1350   1.295       .  A
C1345      O1359   1.244       .  S
C1345      O1360   1.273       .  A
C1345      H1568   1.081       .  S
O1346      C1369   1.275       .  A
O1348     Mg1576   2.438   1_554  S
C1349      O1362   1.284       .  A
C1349      O1354   1.294       .  A
C1349      C1382   1.587       .  S
C1350      O1377   1.275       .  A
C1350      C1384   1.597       .  S
Mg1351     O1353   2.281       .  S
Mg1351     O1380   2.224       .  S
O1353      C1357   1.272       .  A
O1355      C1374   1.280       .  A
O1356      C1376   1.294       .  A
O1358      C1369   1.246       .  S
O1360     Mg1372   2.270       .  S
Mg1361     O1377   2.245       .  S
O1362     Mg1378   2.253       .  S
H1363      C1566   1.081       .  S
O1364      C1367   1.243       .  S
O1364     Mg1533   2.085       .  S
C1368      H1561   1.081       .  S
H1370      C1543   1.081       .  S
O1371     Mg1378   2.290       .  S
C1374      O1379   1.299       .  A
C1374      C1383   1.576       .  S
O1375      C1376   1.284       .  A
C1376      C1386   1.587       .  S
Mg1378     O1534   2.085       .  S
Mg1378     O1546   2.438       .  S
O1379     Mg1533   2.438       .  S
O1387      C1422   1.243       .  S
C1388      O1401   1.244       .  S
C1388      O1425   1.273       .  A
Mg1389     O1418   2.072       .  S
Mg1389     O1433   2.399       .  S
Mg1389     O1429   2.246       .  S
Mg1389     O1400   2.270       .  S
O1390      C1411   1.246       .  S
O1390     Mg1432   2.072       .  S
O1390     Mg1415   2.028       .  S
O1391      C1422   1.272       .  A
O1391     Mg1415   2.281       .  S
C1392      O1394   1.280       .  A
C1392      O1406   1.299       .  A
C1392      C1579   1.576       .  S
O1393      C1421   1.275       .  A
O1393     Mg1395   2.290       .  S
O1394     Mg1426   2.224       .  S
Mg1395     O1409   2.253       .  S
C1396      O1434   1.284       .  A
C1396      O1402   1.294       .  A
C1396      C1583   1.587       .  S
O1397      C1404   1.299       .  A
H1398      C1411   1.081       .  S
C1399      O1413   1.243       .  S
C1399      O1414   1.272       .  A
C1399      H1424   1.081       .  S
O1400      C1423   1.273       .  A
O1401     Mg1415   2.100       .  S
O1402     Mg1432   2.399       .  S
C1403      O1416   1.275       .  A
C1403      O1408   1.295       .  A
C1403      C1580   1.597       .  S
C1404      O1431   1.280       .  A
C1404      C1582   1.576       .  S
Mg1405     O1407   2.290       .  S
Mg1405     O1434   2.253       .  S
O1407      C1411   1.275       .  A
O1408     Mg1415   2.434       .  S
O1409      C1428   1.284       .  A
O1410      C1430   1.295       .  A
O1410     Mg1426   2.434       .  S
O1412      C1423   1.244       .  S
O1412     Mg1426   2.100       .  S
O1414     Mg1426   2.281       .  S
Mg1415     O1431   2.224       .  S
O1416     Mg1432   2.246       .  S
H1417      C1422   1.081       .  S
O1418      C1421   1.246       .  S
O1418     Mg1426   2.028       .  S
H1419      C1421   1.081       .  S
O1425     Mg1432   2.270       .  S
C1428      O1433   1.294       .  A
C1428      C1581   1.587       .  S
O1429      C1430   1.275       .  A
C1430      C1584   1.597       .  S
O1435      C1470   1.244       .  S
C1436      O1449   1.244       .  S
C1436      O1473   1.272       .  A
Mg1437     O1466   2.096       .  S
Mg1437     O1481   2.392       .  S
Mg1437     O1477   2.255       .  S
Mg1437     O1448   2.277       .  S
O1438      C1459   1.244       .  S
O1438     Mg1480   2.096       .  S
O1438     Mg1463   2.020       .  S
O1439      C1470   1.272       .  A
O1439     Mg1463   2.277       .  S
C1440      O1442   1.277       .  A
C1440      O1454   1.294       .  A
C1440      C1582   1.591       .  S
O1441      C1469   1.272       .  A
O1441     Mg1443   2.277       .  S
O1442     Mg1474   2.255       .  S
Mg1443     O1457   2.255       .  S
C1444      O1482   1.277       .  A
C1444      O1450   1.294       .  A
C1444      C1580   1.591       .  S
O1445      C1452   1.294       .  A
H1446      C1459   1.081       .  S
C1447      O1461   1.244       .  S
C1447      O1462   1.272       .  A
C1447      H1472   1.081       .  S
O1448      C1471   1.272       .  A
O1449     Mg1463   2.096       .  S
O1450     Mg1480   2.392       .  S
C1451      O1464   1.277       .  A
C1451      O1456   1.294       .  A
C1451      C1583   1.591       .  S
C1452      O1479   1.277       .  A
C1452      C1579   1.591       .  S
Mg1453     O1455   2.277       .  S
Mg1453     O1482   2.255       .  S
O1455      C1459   1.272       .  A
O1456     Mg1463   2.392       .  S
O1457      C1476   1.277       .  A
O1458      C1478   1.294       .  A
O1458     Mg1474   2.392       .  S
O1460      C1471   1.244       .  S
O1460     Mg1474   2.096       .  S
O1462     Mg1474   2.277       .  S
Mg1463     O1479   2.255       .  S
O1464     Mg1480   2.255       .  S
H1465      C1470   1.081       .  S
O1466      C1469   1.244       .  S
O1466     Mg1474   2.020       .  S
H1467      C1469   1.081       .  S
O1473     Mg1480   2.277       .  S
C1476      O1481   1.294       .  A
C1476      C1584   1.591       .  S
O1477      C1478   1.277       .  A
C1478      C1581   1.591       .  S
O1483      C1518   1.243       .  S
O1483     Mg1485   2.033       .  S
O1483     Mg1491   2.085       .  S
C1484      O1497   1.244       .  S
C1484      O1521   1.273       .  A
C1484      H1523   1.081       .  S
Mg1485     O1514   2.072       .  S
Mg1485     O1529   2.399       .  S
Mg1485     O1525   2.246       .  S
Mg1485     O1496   2.270       .  S
O1486      C1507   1.246       .  S
O1486     Mg1528   2.072       .  S
O1487      C1518   1.272       .  A
O1487     Mg1511   2.281       .  S
C1488      O1490   1.280       .  A
C1488      O1502   1.299       .  A
C1488      C1580   1.576       .  S
O1489      C1517   1.275       .  A
O1489     Mg1491   2.290       .  S
O1490     Mg1522   2.224       .  S
Mg1491     O1505   2.253       .  S
Mg1491     O1493   2.438       .  S
C1492      O1530   1.284       .  A
C1492      O1498   1.294       .  A
C1492      C1582   1.587       .  S
O1493      C1500   1.299       .  A
C1495      O1509   1.243       .  S
C1495      O1510   1.272       .  A
C1495      H1520   1.081       .  S
O1496      C1519   1.273       .  A
O1498     Mg1528   2.399       .  S
C1499      O1512   1.275       .  A
C1499      O1504   1.295       .  A
C1499      C1581   1.597       .  S
C1500      O1527   1.280       .  A
C1500      C1584   1.576       .  S
Mg1501     O1509   2.085       .  S
Mg1501     O1502   2.438       .  S
Mg1501     O1503   2.290       .  S
Mg1501     O1530   2.253       .  S
O1503      C1507   1.275       .  A
O1505      C1524   1.284       .  A
O1506      C1526   1.295       .  A
O1508      C1519   1.244       .  S
O1509     Mg1528   2.033       .  S
O1510     Mg1522   2.281       .  S
Mg1511     O1527   2.224       .  S
O1512     Mg1528   2.246       .  S
H1513      C1518   1.081       .  S
O1514      C1517   1.246       .  S
H1516      C1519   1.081       .  S
O1521     Mg1528   2.270       .  S
C1524      O1529   1.294       .  A
C1524      C1579   1.587       .  S
O1525      C1526   1.275       .  A
C1526      C1583   1.597       .  S
O1531      C1566   1.244       .  S
C1532      O1545   1.246       .  S
C1532      O1569   1.275       .  A
Mg1533     O1573   2.253       .  S
Mg1533     O1544   2.290       .  S
O1534      C1555   1.243       .  S
O1535      C1566   1.273       .  A
O1535     Mg1559   2.270       .  S
C1536      O1538   1.275       .  A
C1536      O1550   1.295       .  A
C1536      C1579   1.597       .  S
O1537      C1565   1.272       .  A
O1537     Mg1539   2.281       .  S
O1538     Mg1570   2.246       .  S
Mg1539     O1553   2.224       .  S
C1540      O1578   1.280       .  A
C1540      O1546   1.299       .  A
C1540      C1583   1.576       .  S
O1541      C1548   1.295       .  A
C1543      O1557   1.244       .  S
C1543      O1558   1.273       .  A
O1544      C1567   1.275       .  A
C1547      O1560   1.284       .  A
C1547      O1552   1.294       .  A
C1547      C1580   1.587       .  S
C1548      O1575   1.275       .  A
C1548      C1582   1.597       .  S
Mg1549     O1551   2.281       .  S
Mg1549     O1578   2.224       .  S
O1551      C1555   1.272       .  A
O1553      C1572   1.280       .  A
O1554      C1574   1.294       .  A
O1556      C1567   1.246       .  S
O1558     Mg1570   2.270       .  S
Mg1559     O1575   2.245       .  S
O1560     Mg1576   2.253       .  S
O1562      C1565   1.243       .  S
O1569     Mg1576   2.290       .  S
C1572      O1577   1.299       .  A
C1572      C1581   1.576       .  S
O1573      C1574   1.284       .  A
C1574      C1584   1.587       .  S
