geometry optimzed in LAMMPS
_audit_creation_date              2020-12-01 
_audit_creation_method            'lammps2cif' 
_symmetry_space_group_name_H-M    'P1' 
_symmetry_Int_Tables_number       1 
_symmetry_cell_setting            triclinic 
loop_ 
_symmetry_equiv_pos_as_xyz 
  x,y,z 
_cell_length_a                    39.44192213 
_cell_length_b                    39.796444815337146 
_cell_length_c                    58.76145363753597 
_cell_angle_alpha                 89.93339437275051 
_cell_angle_beta                  90.07550947663465 
_cell_angle_gamma                 90.12520892532663 
loop_ 
_atom_site_label 
_atom_site_type_symbol 
_atom_site_fract_x 
_atom_site_fract_y 
_atom_site_fract_z 
_atom_site_charge 
C1          C  0.24983601  0.04468220  0.23707637     0.86200
C2          C  0.21799045  0.04191048  0.25186180    -0.54000
C3          C  0.21302510  0.50833217  0.26427260     0.09100
C4          C  0.24432641  0.48528107  0.26108389     0.20100
C5          C  0.27881094  0.03880739  0.25420325    -0.54700
C6          C  0.27501631  0.50743725  0.26771825     0.09200
C7          C  0.24975537  0.01320130  0.22208594    -0.54300
C8          C  0.24745215  0.48084691  0.23512126     0.09800
H9          H  0.20017108  0.06246898  0.25366406     0.14300
H10         H  0.24310056  0.46109172  0.27046203     0.00100
H11         H  0.29919333  0.05626494  0.25774736     0.14600
H12         H  0.25106000  0.51167107  0.20509981     0.14400
C13         C  0.47055368  0.27113478  0.01307459     0.02000
C14         C  0.47073194  0.27109517  0.98906845     0.02000
C15         C  0.00044376  0.26367609  0.97739974    -0.18500
C16         C  0.03165020  0.26431814  0.98871811     0.02000
C17         C  0.03229096  0.26599545  0.01260162     0.02000
C18         C  0.00184911  0.26795005  0.02475491    -0.18500
H19         H  0.00260067  0.26927248  0.04318515     0.04000
H20         H  0.00008179  0.26297201  0.95895745     0.04000
C21         C  0.25597506  0.04010142  0.76635712     0.86200
C22         C  0.28638600  0.03531302  0.75032681    -0.54000
C23         C  0.27468684  0.51103212  0.73625376     0.09100
C24         C  0.24490237  0.48719472  0.74193050     0.20100
C25         C  0.22461969  0.03929236  0.75082391    -0.54700
C26         C  0.21278153  0.50867835  0.73884710     0.09200
C27         C  0.24699967  0.51072069  0.78009478    -0.54300
C28         C  0.24754405  0.48176256  0.76776828     0.09800
H29         H  0.30924629  0.05032275  0.75080402     0.14300
H30         H  0.24446316  0.46361485  0.73186335     0.00100
H31         H  0.20593232  0.05928286  0.75053763     0.14600
H32         H  0.24842544  0.51087126  0.79856679     0.14400
C33         C  0.00258935  0.20608808  0.73744438     0.86200
C34         C  0.03402593  0.21119029  0.75253886    -0.54000
C35         C  0.03381746  0.24002106  0.76510445     0.09100
C36         C  0.00238160  0.26222582  0.76091830     0.20100
C37         C  0.46874434  0.20663549  0.75122686    -0.54700
C38         C  0.46820999  0.23557697  0.76390254     0.09200
C39         C  0.00144377  0.23790966  0.72286332    -0.54300
C40         C  0.00081817  0.26726285  0.73484945     0.09800
H41         H  0.05468012  0.19359297  0.75422514     0.14300
H42         H  0.00226692  0.28606701  0.77070914     0.00100
H43         H  0.44896738  0.18767208  0.75219936     0.14600
H44         H  0.00112856  0.23716761  0.70438313     0.14400
C45         C  0.25244163  0.47980016  0.01357068     0.02000
C46         C  0.25480392  0.48013845  0.98960375     0.02000
C47         C  0.25670425  0.01019459  0.97775827    -0.18500
C48         C  0.25630127  0.04096040  0.98955297     0.02000
C49         C  0.25705802  0.04049453  0.01368729     0.02000
C50         C  0.25606065  0.00945337  0.02512243    -0.18500
H51         H  0.25544389  0.00906924  0.04357438     0.04000
H52         H  0.25712879  0.01032903  0.95930615     0.04000
C53         C  0.35348785  0.27019483  0.93030453     0.42200
N54         N  0.32299975  0.25212812  0.90249146     0.01100
C55         C  0.21801850  0.34760744  0.83393664    -0.06800
H56         H  0.19225626  0.35460473  0.92031741     0.06600
C57         C  0.16497280  0.23043797  0.92050592    -0.07200
Co58       Co  0.29314429  0.30851452  0.87585238     0.74200
N59         N  0.23122374  0.33162317  0.90055534    -0.26300
Co60       Co  0.20543400  0.30246611  0.87679495     0.74100
C61         C  0.14944878  0.26024595  0.93049599     0.42300
N62         N  0.24079786  0.19257842  0.90478536     0.00700
N63         N  0.18160024  0.27514189  0.90271326     0.00800
N64         N  0.27523894  0.35079752  0.83423916    -0.47200
H65         H  0.34293082  0.32545652  0.92039110     0.06600
N66         N  0.26452933  0.33421091  0.90033166     0.01100
N67         N  0.18061610  0.27233116  0.85312420     0.00800
C68         C  0.14624739  0.25433496  0.82757146     0.42400
N69         N  0.27412662  0.19487177  0.90427398    -0.25800
C70         C  0.34102005  0.29222648  0.83442526    -0.06700
N71         N  0.34253807  0.24215412  0.91952042    -0.46900
N72         N  0.15847639  0.28241204  0.83756188    -0.47100
C73         C  0.35464387  0.26151892  0.82425671     0.42200
N74         N  0.26389880  0.33083146  0.85055899     0.01100
N75         N  0.27316511  0.19180058  0.85472544    -0.25800
N76         N  0.32083651  0.28512103  0.90121940    -0.26300
N77         N  0.23979573  0.18936459  0.85522257     0.00700
H78         H  0.31147970  0.16634548  0.83497857     0.06600
H79         H  0.15864207  0.19910125  0.83623720     0.06600
N80         N  0.23050445  0.32876647  0.85094477    -0.26300
N81         N  0.18424803  0.24212237  0.90352181    -0.26000
N82         N  0.32270282  0.24843656  0.85249863     0.01100
C83         C  0.24875228  0.36644494  0.92786346     0.42500
C84         C  0.28699968  0.17521432  0.92069231    -0.07200
N85         N  0.18321934  0.23930709  0.85424603    -0.26000
H86         H  0.16136486  0.20419259  0.92462971     0.06600
N87         N  0.27600612  0.35500928  0.91619646    -0.47200
H88         H  0.31369185  0.17034163  0.92293681     0.06600
C89         C  0.25487401  0.15438633  0.82941499     0.42300
C90         C  0.33930156  0.29879688  0.91793948    -0.06700
Co91       Co  0.29887094  0.22149507  0.87849447     0.73800
N92         N  0.22986297  0.17164688  0.92075134    -0.46900
C93         C  0.24786256  0.36204372  0.82273231     0.42600
N94         N  0.34257093  0.23553856  0.83659505    -0.46900
Co95       Co  0.21163970  0.21545255  0.87944245     0.73900
C96         C  0.16272628  0.22574094  0.83862566    -0.07200
C97         C  0.21890679  0.35110356  0.91716327    -0.06800
N98         N  0.32118920  0.28156523  0.85162290    -0.26300
N99         N  0.16072698  0.28699919  0.91841971    -0.47100
H100        H  0.19139800  0.35210879  0.83079491     0.06600
C101        C  0.28503376  0.17088747  0.83869116    -0.07200
Cl102      Cl  0.25226662  0.26195883  0.87758807    -0.50200
C103        C  0.25750654  0.16005865  0.93194189     0.42300
H104        H  0.34578208  0.31815503  0.82989210     0.06500
N105        N  0.22786448  0.16699600  0.84056943    -0.46900
C106        C  0.24368692  0.36076459  0.17967457     0.42200
N107        N  0.26022968  0.33010827  0.15161888     0.01100
C108        C  0.16471045  0.22941187  0.08058802    -0.06800
H109        H  0.15707588  0.19679103  0.16524780     0.06600
C110        C  0.28488656  0.17354652  0.16367834    -0.07200
Co111      Co  0.20226919  0.30138090  0.12522097     0.74200
N112        N  0.18051850  0.23781077  0.14765543    -0.26300
Co113      Co  0.21000613  0.21483028  0.12266579     0.74100
C114        C  0.25514013  0.15862544  0.17459245     0.42300
N115        N  0.32148597  0.24914588  0.14895156     0.00700
N116        N  0.23894666  0.19029865  0.14713265     0.00800
N117        N  0.15976230  0.28592939  0.08286533    -0.47200
H118        H  0.18737520  0.35061912  0.17087531     0.06600
N119        N  0.17705287  0.27071655  0.14875282     0.01100
N120        N  0.23943922  0.19227431  0.09745917     0.00800
C121        C  0.25606040  0.15957796  0.07059409     0.42400
N122        N  0.31837825  0.28208751  0.15033408    -0.25800
C123        C  0.21572920  0.35017254  0.08461765    -0.06700
N124        N  0.27119818  0.34993091  0.16812519    -0.46900
N125        N  0.22845645  0.17106430  0.08170029    -0.47100
C126        C  0.24564898  0.36536578  0.07405377     0.42200
N127        N  0.17947591  0.27394873  0.09918375     0.01100
N128        N  0.31893593  0.28563550  0.10077135    -0.25800
N129        N  0.22686268  0.32770451  0.15115056    -0.26300
N130        N  0.32147859  0.25267856  0.09933857     0.00700
H131        H  0.34236002  0.32629930  0.08276983     0.06600
H132        H  0.31223904  0.17105071  0.07832765     0.06600
N133        N  0.18255548  0.24098073  0.09829966    -0.26300
N134        N  0.27228445  0.19282450  0.14706529    -0.26000
N135        N  0.26127347  0.33363799  0.10176435     0.01100
C136        C  0.14135071  0.25147920  0.17330236     0.42500
C137        C  0.33778038  0.29319711  0.16757677    -0.07200
N138        N  0.27275735  0.19499971  0.09773523    -0.26000
H139        H  0.31158130  0.16991269  0.16694515     0.06600
N140        N  0.15373943  0.27998019  0.16377052    -0.47200
H141        H  0.34167494  0.31921252  0.17220947     0.06600
C142        C  0.35409494  0.27117979  0.07275158     0.42300
C143        C  0.21407049  0.34628802  0.16814220    -0.06700
Co144      Co  0.29010369  0.30848431  0.12619710     0.73800
N145        N  0.34277931  0.23680920  0.16424774    -0.46900
C146        C  0.14976474  0.25932762  0.07026645     0.42600
N147        N  0.27287703  0.35409729  0.08575425    -0.46900
Co148      Co  0.29752257  0.22201213  0.12317878     0.73900
C149        C  0.28555589  0.17529368  0.08138392    -0.07200
C150        C  0.15965094  0.22352838  0.16280311    -0.06800
N151        N  0.22793871  0.33097962  0.10150637    -0.26300
N152        N  0.22764247  0.16985998  0.16318238    -0.47100
H153        H  0.16202416  0.20325873  0.07594389     0.06600
C154        C  0.33862088  0.29958589  0.08476544    -0.07200
Cl155      Cl  0.24997274  0.26167808  0.12434862    -0.50200
C156        C  0.35350932  0.26299930  0.17691632     0.42300
H157        H  0.18920084  0.35324377  0.08046498     0.06500
N158        N  0.34242200  0.24300068  0.08302799    -0.46900
C159        C  0.10170278  0.49429763  0.67633497     0.42200
N160        N  0.06840674  0.47688540  0.65015893     0.01100
C161        C  0.46911047  0.07082819  0.57786374    -0.06800
H162        H  0.43921026  0.08028327  0.66242237     0.06600
C163        C  0.40353424  0.45817277  0.66631039    -0.07200
Co164      Co  0.04138142  0.03129201  0.62464125     0.74200
N165        N  0.47909539  0.05564486  0.64371130    -0.26300
Co166      Co  0.45473618  0.02589402  0.61959556     0.74100
C167        C  0.38768466  0.48962641  0.67402422     0.42300
N168        N  0.48401591  0.41829023  0.65417042     0.00700
N169        N  0.42874383  0.00003073  0.64473075     0.00800
N170        N  0.02460052  0.07388815  0.58253241    -0.47200
H171        H  0.09596115  0.04846128  0.66741107     0.06600
N172        N  0.01282870  0.05759123  0.64862190     0.01100
N173        N  0.43146799  0.99525071  0.59555558     0.00800
C174        C  0.39449103  0.47634555  0.57298507     0.42400
N175        N  0.01772168  0.42144347  0.65229503    -0.25800
C176        C  0.08683381  0.01439959  0.58306829    -0.06700
N177        N  0.08954293  0.46643322  0.66618370    -0.46900
N178        N  0.41119630  0.00541734  0.57902635    -0.47100
C179        C  0.10127403  0.48665259  0.57259049     0.42200
N180        N  0.01291112  0.05387635  0.59877771     0.01100
N181        N  0.01859701  0.41702878  0.60300682    -0.25800
N182        N  0.06978569  0.00804454  0.65025154    -0.26300
N183        N  0.48543718  0.41208195  0.60432534     0.00700
H184        H  0.05858204  0.39280538  0.58502726     0.06600
H185        H  0.40419118  0.42123395  0.58345528     0.06600
N186        N  0.48118321  0.05143036  0.59457667    -0.26300
N187        N  0.42643302  0.46757036  0.65049289    -0.26000
N188        N  0.06875580  0.47296693  0.60053734     0.01100
C189        C  0.49529054  0.09104899  0.67074920     0.42500
C190        C  0.02990281  0.40280985  0.66946569    -0.07200
N191        N  0.42892353  0.46172034  0.60129764    -0.26000
H192        H  0.39712315  0.43250738  0.67060409     0.06600
N193        N  0.02450697  0.07824394  0.66448420    -0.47200
H194        H  0.05646880  0.39791634  0.67239836     0.06600
C195        C  0.50166792  0.37924536  0.57726099     0.42300
C196        C  0.09092329  0.02188570  0.66552351    -0.06700
Co197      Co  0.04382967  0.44666852  0.62652016     0.73800
N198        N  0.47185275  0.39968658  0.67096518    -0.46900
C199        C  0.49910121  0.08607991  0.56743211     0.42600
N200        N  0.08940943  0.46040203  0.58495185    -0.46900
Co201      Co  0.45588755  0.43924451  0.62767826     0.73900
C202        C  0.40893124  0.44784893  0.58539154    -0.07200
C203        C  0.46593527  0.07613086  0.65947011    -0.06800
N204        N  0.06843666  0.00364124  0.60076197    -0.26300
N205        N  0.40654338  0.01360393  0.65872864    -0.47100
H206        H  0.44251270  0.07540194  0.57512143     0.06600
C207        C  0.03173705  0.39638851  0.58743782    -0.07200
Cl208      Cl  0.49771811  0.48508562  0.62590609    -0.50200
C209        C  0.49861217  0.38893049  0.68336380     0.42300
H210        H  0.09073476  0.04047342  0.57864038     0.06500
N211        N  0.47419627  0.39102971  0.58849848    -0.46900
C212        C  0.50118679  0.08833902  0.32397888     0.42200
N213        N  0.48552889  0.05599579  0.35147683     0.01100
C214        C  0.08512112  0.45388886  0.41933426    -0.06800
H215        H  0.09181358  0.42870290  0.33321412     0.06600
C216        C  0.46700586  0.39993699  0.33365982    -0.07200
Co217      Co  0.04569459  0.02920376  0.37698815     0.74200
N218        N  0.06623529  0.46673185  0.35304345    -0.26300
Co219      Co  0.03796122  0.44126613  0.37779410     0.74100
C220        C  0.49726105  0.38686972  0.32223961     0.42300
N221        N  0.42689997  0.47320020  0.35236259     0.00700
N222        N  0.00869169  0.41804542  0.35285673     0.00800
N223        N  0.09070324  0.01119340  0.41749863    -0.47200
H224        H  0.05730892  0.07994025  0.33200313     0.06600
N225        N  0.06961369  0.00232269  0.35151662     0.01100
N226        N  0.00927816  0.41626645  0.40268270     0.00800
C227        C  0.49844817  0.38261163  0.42848843     0.42400
N228        N  0.42738785  0.00727888  0.35274660    -0.25800
C229        C  0.03457647  0.07523997  0.41870959    -0.06700
N230        N  0.47398276  0.07703972  0.33577941    -0.46900
N231        N  0.02068219  0.39505256  0.41835680    -0.47100
C232        C  0.50511718  0.08939367  0.42785816     0.42200
N233        N  0.07061446  0.00004622  0.40113764     0.01100
N234        N  0.43012388  0.00649218  0.40200727    -0.25800
N235        N  0.01920409  0.05690452  0.35288711    -0.26300
N236        N  0.42889857  0.47159230  0.40206903     0.00700
H237        H  0.40759358  0.04518675  0.42254195     0.06600
H238        H  0.44152503  0.39256158  0.42189224     0.06600
N239        N  0.06591849  0.46623099  0.40250406    -0.26300
N240        N  0.47891371  0.41838658  0.35099197    -0.26000
N241        N  0.48749677  0.05596439  0.40137808     0.01100
C242        C  0.10080895  0.48491125  0.32579663     0.42500
C243        C  0.40545806  0.02036224  0.33777640    -0.07200
N244        N  0.47936415  0.41614724  0.40078840    -0.26000
H245        H  0.44047971  0.39514834  0.33053029     0.06600
N246        N  0.08949117  0.01520682  0.33562625    -0.47200
H247        H  0.40072932  0.04688203  0.33532429     0.06600
C248        C  0.39733132  0.48645703  0.43004335     0.42300
C249        C  0.03084049  0.07557231  0.33562482    -0.06700
Co250      Co  0.45729501  0.03191255  0.37689880     0.73800
N251        N  0.40360159  0.46259465  0.33764884    -0.46900
C252        C  0.10010426  0.48347550  0.43020240     0.42600
N253        N  0.47715784  0.07759042  0.41705306    -0.46900
Co254      Co  0.45295709  0.44419035  0.37650144     0.73900
C255        C  0.46793496  0.39677790  0.41787811    -0.07200
C256        C  0.08672216  0.45490194  0.33664749    -0.06800
N257        N  0.02130543  0.05577064  0.40238000    -0.26300
N258        N  0.02032582  0.39802698  0.33675836    -0.47100
H259        H  0.08911251  0.42747304  0.42263059     0.06600
C260        C  0.41111944  0.01878903  0.41895534    -0.07200
Cl261      Cl  0.49937066  0.48550517  0.37676018    -0.50200
C262        C  0.39026738  0.49031459  0.32771055     0.42300
H263        H  0.06134525  0.07977404  0.42078689     0.06500
N264        N  0.40862037  0.45965829  0.41815092    -0.46900
C265        C  0.50090669  0.26731821  0.51350725     0.02000
C266        C  0.50046582  0.26858728  0.48946068     0.02000
C267        C  0.99779274  0.23682572  0.47863415    -0.18500
C268        C  0.50223994  0.20686622  0.48751268     0.02000
C269        C  0.50419604  0.20575555  0.51157799     0.02000
C270        C  0.50372054  0.23584853  0.52412135    -0.18500
H271        H  0.50511063  0.23468616  0.54253400     0.04000
H272        H  0.99710323  0.23712797  0.46018207     0.04000
C273        C  0.27936096  0.48374108  0.48848377     0.02000
C274        C  0.27936438  0.47787276  0.51219238     0.02000
C275        C  0.24846873  0.47657707  0.52397454    -0.18500
C276        C  0.21743795  0.47999741  0.51255477     0.02000
C277        C  0.21742707  0.48550469  0.48880211     0.02000
C278        C  0.24833569  0.48736182  0.47709082    -0.18500
H279        H  0.24822754  0.49075052  0.45877340     0.04000
H280        H  0.24859825  0.47309662  0.54228400     0.04000
C281        C  0.99989990  0.20630162  0.26519312     0.86200
C282        C  0.46585817  0.21202594  0.25000325    -0.54000
C283        C  0.46500665  0.24185836  0.23849326     0.09100
C284        C  0.99891269  0.26345094  0.24295652     0.20100
C285        C  0.02968777  0.21105265  0.24847581    -0.54700
C286        C  0.02929823  0.24080276  0.23683369     0.09200
C287        C  0.50209750  0.23749887  0.27884510    -0.54300
C288        C  0.00124073  0.26740559  0.26904781     0.09800
H289        H  0.44538229  0.19377436  0.24913496     0.14300
H290        H  0.99826195  0.28753811  0.23340068     0.00100
H291        H  0.05001037  0.19327368  0.24585978     0.14600
H292        H  0.50453160  0.23613505  0.29723851     0.14400
C293        C  0.02097988  0.33361887  0.31345250    -0.26600
C294        C  0.49947028  0.35848958  0.30605789    -0.14700
C295        C  0.47603178  0.35332251  0.28810944     0.36000
C296        C  0.47848666  0.32441767  0.27467328    -0.26000
C297        C  0.50316509  0.30002391  0.27915248    -0.15300
C298        C  0.02459068  0.30515525  0.29966558     0.37100
N299        N  0.05130883  0.28148260  0.30412318    -0.89500
H300        H  0.03797404  0.33691273  0.32778570     0.18200
H301        H  0.45990648  0.32021530  0.26137918     0.18200
N302        N  0.44972264  0.37684428  0.28289303    -0.88600
H303        H  0.06573128  0.28893311  0.31818868     0.35500
H304        H  0.06760894  0.28173660  0.29011262     0.40600
H305        H  0.46035347  0.40083488  0.28142944     0.40300
H306        H  0.43191659  0.37664732  0.29597554     0.35100
C307        C  0.47472080  0.14101251  0.30966265    -0.26600
C308        C  0.50002390  0.11651912  0.30729484    -0.14700
C309        C  0.02080871  0.11808714  0.28876494     0.36000
C310        C  0.02034877  0.14647719  0.27470996    -0.26000
C311        C  0.49785787  0.17361199  0.27785811    -0.15300
C312        C  0.47345187  0.16926385  0.29530554     0.37100
N313        N  0.44751431  0.19388159  0.29879926    -0.89500
H314        H  0.45620035  0.13878210  0.32319117     0.18200
H315        H  0.03734667  0.14648275  0.26038290     0.18200
N316        N  0.04285042  0.09096759  0.28268467    -0.88600
H317        H  0.44963165  0.20287109  0.31545495     0.35500
H318        H  0.42397455  0.18199108  0.29716903     0.40600
H319        H  0.02860994  0.06881886  0.28176512     0.40300
H320        H  0.06163897  0.08833504  0.29502818     0.35100
C321        C  0.47832981  0.14184085  0.44236153    -0.26600
C322        C  0.50480105  0.11835096  0.44408660    -0.14700
C323        C  0.03073422  0.12491868  0.46295879     0.36000
C324        C  0.02827519  0.15293795  0.47730908    -0.26000
C325        C  0.50227315  0.17574606  0.47306658    -0.15300
C326        C  0.47669855  0.17003985  0.45672323     0.37100
N327        N  0.44848650  0.19249524  0.45500072    -0.89500
H328        H  0.45867817  0.13846909  0.42965849     0.18200
H329        H  0.04866808  0.15820591  0.48917439     0.18200
N330        N  0.05971035  0.10367630  0.46560391    -0.88600
H331        H  0.42631867  0.17864599  0.45780199     0.35500
H332        H  0.44767618  0.20187357  0.43838276     0.40600
H333        H  0.07533169  0.10640274  0.45142889     0.40300
H334        H  0.05164896  0.07873862  0.46716390     0.35100
C335        C  0.47059154  0.34594452  0.45758302    -0.26600
C336        C  0.50046735  0.35591234  0.44629390    -0.14700
C337        C  0.02171167  0.34917014  0.46129369     0.36000
C338        C  0.02144933  0.32165494  0.47625789    -0.26000
C339        C  0.50046764  0.30064627  0.47669781    -0.15300
C340        C  0.47039975  0.31847760  0.47263548     0.37100
N341        N  0.43942880  0.30806123  0.48320555    -0.89500
H342        H  0.44696076  0.35889325  0.45438427     0.18200
H343        H  0.04349547  0.31712998  0.48679699     0.18200
N344        N  0.05055603  0.37105044  0.46170142    -0.88600
H345        H  0.42184845  0.30267418  0.47038059     0.35500
H346        H  0.43016116  0.32826256  0.49268660     0.40600
H347        H  0.04212151  0.39556831  0.46455103     0.40300
H348        H  0.06271214  0.36994951  0.44594272     0.35100
C349        C  0.14920588  0.51306452  0.44740087    -0.26600
C350        C  0.12801357  0.48463549  0.44704031    -0.14700
C351        C  0.13488980  0.45758635  0.46196350     0.36000
C352        C  0.16383191  0.45880954  0.47585743    -0.26000
C353        C  0.18561833  0.48665086  0.47545868    -0.15300
C354        C  0.17795499  0.51419146  0.46136836     0.37100
N355        N  0.19715934  0.04655899  0.46310782    -0.89500
H356        H  0.14329445  0.03635792  0.43706488     0.18200
H357        H  0.16983321  0.43764921  0.48675360     0.18200
N358        N  0.11260178  0.42905182  0.46306889    -0.88600
H359        H  0.18486950  0.56410362  0.46547175     0.35500
H360        H  0.20820652  0.54667737  0.44444508     0.40600
H361        H  0.08937544  0.43751503  0.46937673     0.40300
H362        H  0.12160947  0.41126681  0.47469824     0.35100
C363        C  0.35418180  0.01913381  0.45493228    -0.26600
C364        C  0.36874139  0.48565001  0.44641113    -0.14700
C365        C  0.36080762  0.45667509  0.45933464     0.36000
C366        C  0.33207160  0.45684768  0.47357176    -0.26000
C367        C  0.31107860  0.48520895  0.47494491    -0.15300
C368        C  0.32579434  0.01948533  0.46935443     0.37100
N369        N  0.31177459  0.05081179  0.47670701    -0.89500
H370        H  0.36512417  0.04291193  0.44981364     0.18200
H371        H  0.32552297  0.43454539  0.48322202     0.18200
N372        N  0.38164229  0.42716775  0.45781883    -0.88600
H373        H  0.30487402  0.06453883  0.46225167     0.35500
H374        H  0.33079949  0.06421600  0.48517913     0.40600
H375        H  0.37199016  0.40798003  0.46813208     0.40300
H376        H  0.40554184  0.43329929  0.46433783     0.35100
C377        C  0.14796591  0.45453597  0.55420805    -0.26600
C378        C  0.12885660  0.48424434  0.55541397    -0.14700
C379        C  0.13326242  0.00812891  0.53937726     0.36000
C380        C  0.16197510  0.00734151  0.52529406    -0.26000
C381        C  0.18562927  0.47960467  0.52610186    -0.15300
C382        C  0.17582636  0.45162031  0.53952688     0.37100
N383        N  0.19329072  0.41992976  0.53870792    -0.89500
H384        H  0.14148111  0.43331930  0.56493876     0.18200
H385        H  0.16715789  0.02855341  0.51424325     0.18200
N386        N  0.11020093  0.03573995  0.53758941    -0.88600
H387        H  0.17570873  0.40171935  0.53361259     0.35500
H388        H  0.21210294  0.41981693  0.52625615     0.40600
H389        H  0.10125060  0.03672316  0.52084332     0.40300
H390        H  0.12365897  0.05790614  0.54078789     0.35100
C391        C  0.34754439  0.44650914  0.55266143    -0.26600
C392        C  0.36693264  0.47584891  0.55574309    -0.14700
C393        C  0.35989762  0.00771685  0.54164662     0.36000
C394        C  0.32992066  0.00793912  0.52885656    -0.26000
C395        C  0.31109571  0.47526666  0.52553268    -0.15300
C396        C  0.31984948  0.44575633  0.53767229     0.37100
N397        N  0.30114649  0.41482323  0.53546052    -0.89500
H398        H  0.35334195  0.42403843  0.56228896     0.18200
H399        H  0.32135765  0.03117464  0.52119782     0.18200
N400        N  0.37978021  0.03790824  0.54362987    -0.88600
H401        H  0.31793336  0.39657823  0.52945991     0.35500
H402        H  0.28210708  0.41663245  0.52318608     0.40600
H403        H  0.36839598  0.05774207  0.53480546     0.40300
H404        H  0.40302537  0.03348163  0.53565597     0.35100
C405        C  0.02517703  0.13794430  0.55749501    -0.26600
C406        C  0.50052484  0.11534643  0.55175702    -0.14700
C407        C  0.47526617  0.12211249  0.53515777     0.36000
C408        C  0.47759167  0.15109868  0.52181511    -0.26000
C409        C  0.50457213  0.17368287  0.52441231    -0.15300
C410        C  0.02680751  0.16712822  0.54408746     0.37100
N411        N  0.05400471  0.19052289  0.54741253    -0.89500
H412        H  0.04425398  0.13421557  0.57053818     0.17800
H413        H  0.45760547  0.15650078  0.50967913     0.18200
N414        N  0.44721442  0.10008779  0.53100903    -0.88600
H415        H  0.07685052  0.17780735  0.54485350     0.35500
H416        H  0.05335982  0.19861248  0.56432981     0.40600
H417        H  0.43010107  0.10195583  0.54443946     0.40300
H418        H  0.45603743  0.07545106  0.52943640     0.35100
C419        C  0.02999402  0.31279964  0.53392698    -0.26600
C420        C  0.49919360  0.29798103  0.52817299    -0.14700
C421        C  0.47238759  0.30278676  0.54387070     0.36000
C422        C  0.47337962  0.32984189  0.55913447    -0.26000
C423        C  0.50069113  0.35253488  0.55944021    -0.15300
C424        C  0.03189218  0.34023641  0.54886133     0.37100
N425        N  0.06433822  0.35500617  0.55320569    -0.89500
H426        H  0.05315046  0.30266379  0.52680492     0.18200
H427        H  0.45293082  0.33257012  0.57128664     0.18200
N428        N  0.44353826  0.28084913  0.54455073    -0.88600
H429        H  0.07448149  0.36311276  0.53770445     0.35500
H430        H  0.08027033  0.33643390  0.55983230     0.40600
H431        H  0.45130857  0.25675855  0.54920542     0.40300
H432        H  0.43282597  0.27982749  0.52828824     0.35100
C433        C  0.05821005  0.22450701  0.20138019    -0.26600
C434        C  0.05526866  0.24792616  0.21905128    -0.14700
C435        C  0.07951391  0.27424515  0.22055872     0.36000
C436        C  0.10683364  0.27504777  0.20512047    -0.26000
C437        C  0.11100364  0.25009225  0.18842490    -0.15300
C438        C  0.08547071  0.22513221  0.18622996     0.37100
N439        N  0.08574752  0.20035812  0.16859543    -0.89500
H440        H  0.03951202  0.20461858  0.19978719     0.18200
H441        H  0.12566652  0.29478840  0.20672488     0.18200
N442        N  0.07844963  0.29953834  0.23797170    -0.88600
H443        H  0.10498104  0.18309687  0.17185130     0.35500
H444        H  0.08960791  0.21216940  0.15290851     0.40600
H445        H  0.05794632  0.29612246  0.24884424     0.40300
H446        H  0.07486574  0.32272357  0.22994817     0.35100
C447        C  0.44239283  0.25029649  0.19959085    -0.26600
C448        C  0.43675030  0.25097487  0.22311860    -0.14700
C449        C  0.40400760  0.25843408  0.23143416     0.36000
C450        C  0.37730709  0.26368091  0.21607178    -0.26000
C451        C  0.38265389  0.26127406  0.19256074    -0.15300
C452        C  0.41554801  0.25521952  0.18417858     0.37100
N453        N  0.42134832  0.25352059  0.16006138    -0.89500
H454        H  0.46759187  0.24483539  0.19326792     0.18200
H455        H  0.35208026  0.26865387  0.22252066     0.18200
N456        N  0.39725815  0.26086232  0.25532326    -0.88600
H457        H  0.44689373  0.24864014  0.15669815     0.35500
H458        H  0.41616731  0.27724932  0.15325256     0.40600
H459        H  0.41333690  0.27910679  0.26222508     0.40300
H460        H  0.40284409  0.23781688  0.26296873     0.35100
C461        C  0.23069796  0.09478746  0.02579672    -0.26600
C462        C  0.25741307  0.07170388  0.02760855    -0.14700
C463        C  0.28364191  0.07785877  0.04337410     0.36000
C464        C  0.28292522  0.10689696  0.05686548    -0.26000
C465        C  0.25607817  0.12991977  0.05528288    -0.15300
C466        C  0.22964007  0.12360225  0.03949430     0.37100
N467        N  0.20170035  0.14616379  0.03670110    -0.89500
H468        H  0.21023182  0.09010485  0.01388367     0.18200
H469        H  0.30321605  0.11097610  0.06899770     0.18200
N470        N  0.31117773  0.05467593  0.04565777    -0.88600
H471        H  0.21123202  0.17010625  0.03306401     0.35500
H472        H  0.18806894  0.14710649  0.05191148     0.40600
H473        H  0.31180678  0.04632447  0.06253223     0.40300
H474        H  0.33375063  0.06763514  0.04241809     0.35100
C475        C  0.21741131  0.41131565  0.05218093    -0.26600
C476        C  0.24668754  0.39231629  0.05654404    -0.14700
C477        C  0.27683468  0.40037271  0.04481103     0.36000
C478        C  0.27776543  0.42828892  0.03018573    -0.26000
C479        C  0.24896979  0.44822589  0.02679547    -0.15300
C480        C  0.21807391  0.43901487  0.03741122     0.37100
N481        N  0.18705080  0.45725382  0.03384153    -0.89500
H482        H  0.19387117  0.40530042  0.06073261     0.18200
H483        H  0.30133672  0.43489449  0.02181600     0.18200
N484        N  0.30655439  0.38019087  0.04755662    -0.88600
H485        H  0.16958994  0.44065510  0.02652029     0.35500
H486        H  0.19015340  0.47678717  0.02216777     0.40600
H487        H  0.32616677  0.39563073  0.05343959     0.40300
H488        H  0.31339486  0.37110265  0.03152643     0.35100
C489        C  0.23110643  0.10679645  0.94546787    -0.26600
C490        C  0.25685364  0.13099925  0.94798883    -0.14700
C491        C  0.28096832  0.12663254  0.96567012     0.36000
C492        C  0.28004972  0.09760554  0.97922543    -0.26000
C493        C  0.25516337  0.07278821  0.97602386    -0.15300
C494        C  0.22988401  0.07793471  0.95931669     0.37100
N495        N  0.20308950  0.05372964  0.95644677    -0.89500
H496        H  0.21207714  0.11009138  0.93234407     0.18200
H497        H  0.29936744  0.09416590  0.99213997     0.18200
N498        N  0.30604599  0.15152864  0.97086872    -0.88600
H499        H  0.18663219  0.06108754  0.94340754     0.35500
H500        H  0.18886543  0.05344156  0.97144925     0.40600
H501        H  0.29410496  0.17479004  0.97274077     0.40300
H502        H  0.32351601  0.15277111  0.95761326     0.35100
C503        C  0.27889288  0.41493716  0.94531565    -0.26600
C504        C  0.25041227  0.39359502  0.94535443    -0.14700
C505        C  0.22492029  0.39902050  0.96202205     0.36000
C506        C  0.22737629  0.42655094  0.97678478    -0.26000
C507        C  0.25491429  0.44880993  0.97575408    -0.15300
C508        C  0.28145350  0.44230404  0.96034213     0.37100
N509        N  0.31075287  0.46385302  0.95986334    -0.89500
H510        H  0.29904401  0.41075342  0.93314239     0.18200
H511        H  0.20693035  0.43120684  0.98863721     0.18200
N512        N  0.19646690  0.37705695  0.96481252    -0.88600
H513        H  0.32797847  0.45579090  0.94752491     0.35500
H514        H  0.32298547  0.46159726  0.97558739     0.40600
H515        H  0.20493227  0.35219494  0.96542694     0.40300
H516        H  0.17981882  0.38050204  0.95123051     0.35100
C517        C  0.46919867  0.14115756  0.68901863    -0.26600
C518        C  0.49545091  0.11752208  0.68842906    -0.14700
C519        C  0.02718780  0.12352332  0.70628524     0.36000
C520        C  0.02821252  0.15132159  0.72107382    -0.26000
C521        C  0.49734032  0.17189012  0.71983346    -0.15300
C522        C  0.46991107  0.16813055  0.70439307     0.37100
N523        N  0.44289314  0.19215106  0.70393564    -0.89500
H524        H  0.44843970  0.13940033  0.67698087     0.18200
H525        H  0.05105301  0.15482568  0.73076622     0.18200
N526        N  0.05549020  0.10083782  0.70512043    -0.88600
H527        H  0.42014012  0.17941184  0.70700238     0.35500
H528        H  0.44168609  0.20250726  0.68759374     0.40600
H529        H  0.04724060  0.07742781  0.71105035     0.40300
H530        H  0.07499158  0.10852176  0.71601459     0.35100
C531        C  0.47311919  0.33411045  0.69336936    -0.26600
C532        C  0.49682949  0.35929028  0.69858252    -0.14700
C533        C  0.51857966  0.35473809  0.71753282     0.36000
C534        C  0.02036268  0.32644712  0.72841650    -0.26000
C535        C  0.49625178  0.29802293  0.72292442    -0.15300
C536        C  0.47255564  0.30374188  0.70536934     0.37100
N537        N  0.44768040  0.27879175  0.69974664    -0.89500
H538        H  0.45549122  0.33748048  0.67939206     0.18200
H539        H  0.03821120  0.32347827  0.74228089     0.18200
N540        N  0.54060392  0.38086214  0.72550074    -0.88600
H541        H  0.45057231  0.27254023  0.68258092     0.35500
H542        H  0.42366805  0.28942917  0.70181336     0.40600
H543        H  0.03098967  0.40434572  0.72381508     0.40300
H544        H  0.06254463  0.38503962  0.70909736     0.35100
C545        C  0.07847281  0.27621857  0.78347637    -0.26600
C546        C  0.06010010  0.24597332  0.78278819    -0.14700
C547        C  0.06872977  0.21993161  0.79800178     0.36000
C548        C  0.09664306  0.22347349  0.81239971    -0.26000
C549        C  0.11620620  0.25289580  0.81243359    -0.15300
C550        C  0.10645587  0.27992210  0.79826388     0.37100
N551        N  0.12536849  0.31068654  0.79835782    -0.89500
H552        H  0.07192734  0.29648593  0.77199462     0.18200
H553        H  0.10271153  0.20289201  0.82373774     0.18200
N554        N  0.04898156  0.18968646  0.79896802    -0.88600
H555        H  0.10878618  0.33019550  0.80250868     0.35500
H556        H  0.13436999  0.31499796  0.78188151     0.40600
H557        H  0.06499962  0.16940713  0.79555239     0.40300
H558        H  0.03977708  0.18693842  0.81554361     0.35100
C559        C  0.40580623  0.23496387  0.77269479    -0.26600
C560        C  0.43895893  0.24445426  0.77908025    -0.14700
C561        C  0.44350696  0.26138092  0.80000276     0.36000
C562        C  0.41531473  0.26871422  0.81379369    -0.26000
C563        C  0.38264328  0.25813302  0.80768633    -0.15300
C564        C  0.37779733  0.24106285  0.78695579     0.37100
N565        N  0.34450634  0.22957821  0.78063502    -0.89500
H566        H  0.40164662  0.22246410  0.75656989     0.18200
H567        H  0.41925949  0.28112845  0.82999286     0.18200
N568        N  0.47679861  0.26942930  0.80807125    -0.88600
H569        H  0.34523154  0.21700918  0.76502634     0.35500
H570        H  0.32929820  0.25078569  0.77826969     0.40600
H571        H  0.47792167  0.29532800  0.81095293     0.40300
H572        H  0.48047521  0.25722318  0.82364256     0.35100
C573        C  0.32398816  0.02905694  0.70689343    -0.26600
C574        C  0.30205391  0.50397694  0.71935933    -0.14700
C575        C  0.31820760  0.47246792  0.71782988     0.36000
C576        C  0.34555325  0.46801083  0.70268658    -0.26000
C577        C  0.35760158  0.49464646  0.68912891    -0.15300
C578        C  0.35030976  0.02525843  0.69123004     0.37100
N579        N  0.36319337  0.05451441  0.67989244    -0.89500
H580        H  0.31408454  0.05405670  0.70986278     0.18200
H581        H  0.35793218  0.44377462  0.70204252     0.18200
N582        N  0.30802478  0.44532163  0.73231244    -0.88600
H583        H  0.37198812  0.07132654  0.69223640     0.35500
H584        H  0.34317329  0.06594127  0.67116109     0.40600
H585        H  0.32893474  0.43810949  0.74210442     0.40300
H586        H  0.30111791  0.42502209  0.72201200     0.35100
C587        C  0.12452244  0.49368901  0.71529600    -0.26600
C588        C  0.13085943  0.49460780  0.69188102    -0.14700
C589        C  0.16469664  0.49676211  0.68391463     0.36000
C590        C  0.19122504  0.49946888  0.69973074    -0.26000
C591        C  0.18468698  0.50039485  0.72314191    -0.15300
C592        C  0.15100323  0.49668725  0.73099350     0.37100
N593        N  0.14299278  0.49563708  0.75476564    -0.89500
H594        H  0.09869725  0.49145294  0.72142467     0.18200
H595        H  0.22343258  0.00499866  0.69183778     0.18200
N596        N  0.17793320  0.99751531  0.65934566    -0.88600
H597        H  0.14961896  0.51852358  0.76221612     0.35500
H598        H  0.15730138  0.47658572  0.76235504     0.40600
H599        H  0.15157567  0.49532404  0.64981580     0.40300
H600        H  0.18779214  0.47603052  0.65673597     0.35100
C601        C  0.23346763  0.07130918  0.80062021    -0.26600
C602        C  0.25600230  0.07119611  0.78199212    -0.14700
C603        C  0.27504539  0.10097899  0.77788637     0.36000
C604        C  0.27500892  0.12710161  0.79396624    -0.26000
C605        C  0.25373615  0.12616107  0.81298350    -0.15300
C606        C  0.23177444  0.09846009  0.81590285     0.37100
N607        N  0.20841561  0.09746145  0.83465492    -0.89500
H608        H  0.21669058  0.05006498  0.80319146     0.18200
H609        H  0.29063876  0.14910656  0.79096175     0.18200
N610        N  0.29244489  0.10638007  0.75684770    -0.88600
H611        H  0.19576507  0.07435836  0.83520357     0.35500
H612        H  0.18977005  0.11551356  0.83151739     0.40600
H613        H  0.28217103  0.12767062  0.74902620     0.40300
H614        H  0.31792139  0.11138058  0.76048890     0.35100
C615        C  0.22407990  0.42558412  0.77691747    -0.26600
C616        C  0.25079201  0.44867104  0.77895731    -0.14700
C617        C  0.27821240  0.44141309  0.79374995     0.36000
C618        C  0.27679466  0.41260289  0.80738360    -0.26000
C619        C  0.24908159  0.39044416  0.80642138    -0.15300
C620        C  0.22298936  0.39654130  0.79052552     0.37100
N621        N  0.19538866  0.37339598  0.78810441    -0.89500
H622        H  0.20327503  0.43078817  0.76538287     0.18200
H623        H  0.29735827  0.40799249  0.81922455     0.18200
N624        N  0.30764646  0.46272443  0.79559797    -0.88600
H625        H  0.19487895  0.36511049  0.77122920     0.35500
H626        H  0.17283784  0.38634403  0.79124184     0.40600
H627        H  0.30735614  0.48192781  0.78350991     0.40300
H628        H  0.32882430  0.44814471  0.79157285     0.35100
C629        C  0.10275121  0.23149165  0.04939919    -0.26600
C630        C  0.12231636  0.26046251  0.05317895    -0.14700
C631        C  0.11389758  0.29056228  0.04176990     0.36000
C632        C  0.08444493  0.29168443  0.02836291    -0.26000
C633        C  0.06425799  0.26301234  0.02540415    -0.15300
C634        C  0.07405237  0.23225215  0.03546900     0.37100
N635        N  0.05518671  0.20156626  0.03244998    -0.89500
H636        H  0.10902444  0.20812738  0.05784093     0.18200
H637        H  0.07689639  0.31510624  0.02045610     0.18200
N638        N  0.13506900  0.31984576  0.04395698    -0.88600
H639        H  0.07121101  0.18430653  0.02449415     0.35500
H640        H  0.03452843  0.20469607  0.02155853     0.40600
H641        H  0.12521946  0.33981977  0.03446656     0.40300
H642        H  0.15860801  0.31408709  0.03679715     0.35100
C643        C  0.42169204  0.30043873  0.03061171    -0.26600
C644        C  0.43874255  0.27035849  0.02633521    -0.14700
C645        C  0.42666508  0.24020468  0.03592318     0.36000
C646        C  0.39834072  0.24102767  0.05043006    -0.26000
C647        C  0.38177064  0.27142369  0.05549754    -0.15300
C648        C  0.39297282  0.30116978  0.04463132     0.37100
N649        N  0.37530413  0.33220888  0.04743728    -0.89500
H650        H  0.43097556  0.32365964  0.02324004     0.18200
H651        H  0.38973505  0.21785842  0.05822218     0.18200
N652        N  0.44328582  0.20894749  0.03094251    -0.88600
H653        H  0.36781466  0.34057034  0.03132780     0.35500
H654        H  0.39223180  0.34986243  0.05415834     0.40600
H655        H  0.46754690  0.20987981  0.03808273     0.40300
H656        H  0.43069112  0.18894803  0.03882805     0.35100
C657        C  0.10244211  0.23161857  0.95142170    -0.26600
C658        C  0.12108687  0.26112412  0.94704975    -0.14700
C659        C  0.11137123  0.29122878  0.95788029     0.36000
C660        C  0.08221460  0.29181543  0.97152972    -0.26000
C661        C  0.06318110  0.26256931  0.97520977    -0.15300
C662        C  0.07378180  0.23213564  0.96551279     0.37100
N663        N  0.05537365  0.20175973  0.96992195    -0.89500
H664        H  0.10951274  0.20808870  0.94356061     0.18200
H665        H  0.07424633  0.31528925  0.97912568     0.18200
N666        N  0.13122656  0.32115492  0.95534405    -0.88600
H667        H  0.04726933  0.19192187  0.95434370     0.35500
H668        H  0.07206943  0.18453104  0.97732128     0.40600
H669        H  0.13908982  0.32878567  0.97153985     0.40300
H670        H  0.11565155  0.33994530  0.94863017     0.35100
C671        C  0.41916442  0.29909401  0.97376127    -0.26600
C672        C  0.43903706  0.27008871  0.97563392    -0.14700
C673        C  0.42915785  0.24069437  0.96399883     0.36000
C674        C  0.40029793  0.24108338  0.95027126    -0.26000
C675        C  0.38097221  0.27041524  0.94754501    -0.15300
C676        C  0.38975875  0.29944471  0.96020169     0.37100
N677        N  0.36899951  0.32905022  0.95938161    -0.89500
H678        H  0.42690385  0.32166609  0.98264446     0.18200
H679        H  0.39371654  0.21843567  0.94103527     0.18200
N680        N  0.44819465  0.21016244  0.96562753    -0.88600
H681        H  0.37926921  0.34807512  0.96955341     0.35500
H682        H  0.34549145  0.32285460  0.96646129     0.40600
H683        H  0.45008247  0.20346663  0.98278328     0.40300
H684        H  0.47257325  0.21439334  0.95930921     0.35100
C685        C  0.32077475  0.47046887  0.28387620    -0.26600
C686        C  0.30081728  0.49955694  0.28546352    -0.14700
C687        C  0.30669837  0.02370962  0.30207939     0.36000
C688        C  0.33740977  0.51947485  0.31600893    -0.26000
C689        C  0.35867113  0.49141931  0.31373918    -0.15300
C690        C  0.34961361  0.46618019  0.29779148     0.37100
N691        N  0.37002039  0.43686399  0.29454284    -0.89500
H692        H  0.31499926  0.45188006  0.27096836     0.18200
H693        H  0.33896832  0.03751895  0.32987781     0.18200
N694        N  0.28447544  0.05171749  0.30538137    -0.88600
H695        H  0.37061637  0.42331055  0.30977549     0.35500
H696        H  0.39468411  0.44449057  0.29052688     0.40600
H697        H  0.29887488  0.07375082  0.30429829     0.40300
H698        H  0.27449167  0.05014529  0.32182169     0.35100
C699        C  0.12487660  0.00946471  0.28735701    -0.26600
C700        C  0.12875991  0.48735876  0.30923682    -0.14700
C701        C  0.16136112  0.47501104  0.31426655     0.36000
C702        C  0.18824319  0.48147211  0.29910604    -0.26000
C703        C  0.18313097  0.49979167  0.27891089    -0.15300
C704        C  0.15159013  0.01511230  0.27205096     0.37100
N705        N  0.14493235  0.03137188  0.25064214    -0.89500
H706        H  0.09958541  0.01825697  0.28327799     0.18200
H707        H  0.21352589  0.47325785  0.30359904     0.18200
N708        N  0.16731537  0.45706750  0.33513376    -0.88600
H709        H  0.11934728  0.03788607  0.24921859     0.35500
H710        H  0.14988506  0.01400188  0.23774075     0.40600
H711        H  0.16317789  0.47374073  0.34858168     0.40300
H712        H  0.19265270  0.44956642  0.33625363     0.35100
C713        C  0.27989217  0.09713143  0.22135849    -0.26600
C714        C  0.25076905  0.07658813  0.22252877    -0.14700
C715        C  0.22283683  0.08469901  0.20838784     0.36000
C716        C  0.22455046  0.11229837  0.19370995    -0.26000
C717        C  0.25392260  0.13199050  0.19215319    -0.15300
C718        C  0.28161286  0.12486609  0.20659945     0.37100
N719        N  0.31145376  0.14566099  0.20634259    -0.89500
H720        H  0.30211850  0.09154351  0.23127104     0.18200
H721        H  0.20296531  0.11752368  0.18284669     0.18200
N722        N  0.19275304  0.06442914  0.20842668    -0.88600
H723        H  0.32973851  0.13664623  0.21769464     0.35500
H724        H  0.30446466  0.16946801  0.21217586     0.40600
H725        H  0.18880456  0.05536118  0.19194182     0.40300
H726        H  0.17224383  0.07978344  0.21269457     0.35100
C727        C  0.22396897  0.42332566  0.22738976    -0.26600
C728        C  0.24855225  0.44807350  0.22304336    -0.14700
C729        C  0.27275098  0.44243017  0.20587359     0.36000
C730        C  0.27056525  0.41368332  0.19229522    -0.26000
C731        C  0.24485213  0.38974602  0.19557339    -0.15300
C732        C  0.22191764  0.39419199  0.21390585     0.37100
N733        N  0.19708232  0.36934366  0.21971982    -0.89500
H734        H  0.20563391  0.42711242  0.24086256     0.18200
H735        H  0.28896982  0.41045087  0.17879979     0.18200
N736        N  0.29992706  0.46579160  0.20230338    -0.88600
H737        H  0.20927205  0.34622953  0.22176548     0.35500
H738        H  0.17945858  0.36748734  0.20654716     0.40600
H739        H  0.29868993  0.47425878  0.18547186     0.40300
H740        H  0.32281754  0.45295897  0.20442740     0.35100
C741        C  0.24803552  0.54202011  0.23845227     0.86200
C742        C  0.21578770  0.53821437  0.25278522    -0.54000
C743        C  0.21454834  0.01202482  0.26310209     0.09100
C744        C  0.24500979  0.98810462  0.25966029     0.20100
C745        C  0.27699731  0.53669823  0.25565052    -0.54700
C746        C  0.27619926  0.00943126  0.26609191     0.09200
C747        C  0.24924230  0.51050934  0.22352836    -0.54300
C748        C  0.24777813  0.98360852  0.23374012     0.09800
H749        H  0.19720190  0.55817890  0.25400129     0.14300
H750        H  0.24324301  0.96400422  0.26911957     0.00100
H751        H  0.29796284  0.55373177  0.25839002     0.14600
H752        H  0.25134266  0.01433108  0.20364154     0.14400
C753        C  0.46892841  0.76956913  0.01340014     0.02000
C754        C  0.46905180  0.76862689  0.98944488     0.02000
C755        C  0.00220391  0.76372557  0.97761646    -0.18500
C756        C  0.03324366  0.76133268  0.98908054     0.02000
C757        C  0.03363240  0.75856984  0.01297422     0.02000
C758        C  0.00297158  0.75852321  0.02499075    -0.18500
H759        H  0.00339905  0.75707866  0.04342119     0.04000
H760        H  0.00190749  0.76553082  0.95919866     0.04000
C761        C  0.24488084  0.54283082  0.76575500     0.86200
C762        C  0.27415368  0.54019312  0.74859715    -0.54000
C763        C  0.28403601  0.00809209  0.73621584     0.09100
C764        C  0.25187047  0.98675111  0.74023129     0.20100
C765        C  0.21298914  0.53786805  0.75097676    -0.54700
C766        C  0.22206370  0.01136147  0.73742855     0.09200
C767        C  0.25497443  0.00652086  0.77940868    -0.54300
C768        C  0.25286624  0.97873627  0.76585538     0.09800
H769        H  0.29334810  0.55961672  0.74678894     0.14300
H770        H  0.24965368  0.96424408  0.72919779     0.00100
H771        H  0.19261482  0.55579073  0.74909808     0.14600
H772        H  0.25659889  0.00469122  0.79782415     0.14400
C773        C  0.00031874  0.70515422  0.73770779     0.86200
C774        C  0.03194587  0.70949896  0.75273928    -0.54000
C775        C  0.03180873  0.73752852  0.76608346     0.09100
C776        C  0.00029798  0.75990429  0.76254331     0.20100
C777        C  0.46899047  0.71107087  0.75129975    -0.54700
C778        C  0.46881791  0.74029333  0.76357060     0.09200
C779        C  0.99867028  0.73773314  0.72393958    -0.54300
C780        C  0.99843205  0.76634440  0.73667995     0.09800
H781        H  0.05262562  0.69184929  0.75388540     0.14300
H782        H  0.00044482  0.78342205  0.77263809     0.00100
H783        H  0.44866295  0.69268321  0.75235366     0.14600
H784        H  0.99787894  0.73809247  0.70545545     0.14400
C785        C  0.25452653  0.97889788  0.01324067     0.02000
C786        C  0.25581991  0.97921332  0.98924475     0.02000
C787        C  0.25660294  0.51120454  0.97824737    -0.18500
C788        C  0.25686805  0.54189497  0.99012466     0.02000
C789        C  0.25682132  0.54127350  0.01424130     0.02000
C790        C  0.25406119  0.51023576  0.02556509    -0.18500
H791        H  0.25285547  0.50975239  0.04400334     0.04000
H792        H  0.25751931  0.51150319  0.95980532     0.04000
C793        C  0.35419838  0.77017606  0.92923100     0.42200
N794        N  0.32359974  0.75229666  0.90153739     0.01100
C795        C  0.21703337  0.84516919  0.83247788    -0.06800
H796        H  0.19099283  0.85302423  0.91948622     0.06600
C797        C  0.16752380  0.73024962  0.92176329    -0.07200
Co798      Co  0.29260566  0.80836511  0.87514069     0.74200
N799        N  0.23039164  0.83114496  0.89965551    -0.26300
Co800      Co  0.20493470  0.80137957  0.87625807     0.74100
C801        C  0.15160180  0.76013827  0.93142036     0.42300
N802        N  0.24244387  0.69258888  0.90497905     0.00700
N803        N  0.18203538  0.77446156  0.90267864     0.00800
N804        N  0.27417290  0.84863675  0.83270551    -0.47200
H805        H  0.34289186  0.82555949  0.91973346     0.06600
N806        N  0.26364576  0.83399331  0.89953411     0.01100
N807        N  0.18000195  0.77045229  0.85312419     0.00800
C808        C  0.14520574  0.75133036  0.82814714     0.42400
N809        N  0.27572563  0.69487236  0.90400991    -0.25800
C810        C  0.34110205  0.79314243  0.83421744    -0.06700
N811        N  0.34338978  0.74224706  0.91836145    -0.46900
N812        N  0.15750626  0.77981224  0.83759198    -0.47100
C813        C  0.35592423  0.76294394  0.82428320     0.42200
N814        N  0.26294912  0.82974581  0.84962698     0.01100
N815        N  0.27332943  0.69190327  0.85442055    -0.25800
N816        N  0.32092930  0.78528110  0.90047404    -0.26300
N817        N  0.23998835  0.68949982  0.85530036     0.00700
H818        H  0.31084532  0.66851425  0.83298951     0.06600
H819        H  0.15823365  0.69649618  0.83761468     0.06600
N820        N  0.22958908  0.82735622  0.84999406    -0.26300
N821        N  0.18551930  0.74158308  0.90408172    -0.26000
N822        N  0.32311221  0.74873602  0.85181056     0.01100
C823        C  0.24725403  0.86632741  0.92694364     0.42500
C824        C  0.28910522  0.67572014  0.92056148    -0.07200
N825        N  0.18278477  0.73752685  0.85478383    -0.26000
H826        H  0.16489459  0.70411701  0.92648762     0.06600
N827        N  0.27472987  0.85495305  0.91541970    -0.47200
H828        H  0.31588257  0.67119849  0.92270495     0.06600
C829        C  0.25391189  0.65718229  0.82778899     0.42300
C830        C  0.33954750  0.79889863  0.91714886    -0.06700
Co831      Co  0.29955646  0.72152091  0.87788463     0.73800
N832        N  0.23202598  0.67216353  0.92137517    -0.46900
C833        C  0.24685715  0.85924418  0.82082510     0.42600
N834        N  0.34409567  0.73648045  0.83630079    -0.46900
Co835      Co  0.21232965  0.71482130  0.87985684     0.73900
C836        C  0.16205152  0.72324801  0.83957082    -0.07200
C837        C  0.21770971  0.85043775  0.91622646    -0.06800
N838        N  0.32097013  0.78183322  0.85102623    -0.26300
N839        N  0.16165170  0.78654774  0.91856849    -0.47100
H840        H  0.19034453  0.84877378  0.82917744     0.06600
C841        C  0.28456580  0.67218819  0.83756025    -0.07200
Cl842      Cl  0.25237492  0.76150909  0.87722191    -0.50200
C843        C  0.25994767  0.66084354  0.93238379     0.42300
H844        H  0.34565607  0.81923013  0.83002247     0.06500
N845        N  0.22738799  0.66888069  0.83981250    -0.46900
C846        C  0.24474665  0.86228938  0.17960689     0.42200
N847        N  0.26098380  0.83087885  0.15189216     0.01100
C848        C  0.16617438  0.72724892  0.08211332    -0.06800
H849        H  0.15445314  0.69886098  0.16655917     0.06600
C850        C  0.28345952  0.67313532  0.16717806    -0.07200
Co851      Co  0.20324545  0.80133815  0.12561810     0.74200
N852        N  0.18062331  0.73857721  0.14879416    -0.26300
Co853      Co  0.21047769  0.71427889  0.12455927     0.74100
C854        C  0.25313043  0.65793945  0.17724769     0.42300
N855        N  0.32060313  0.74945534  0.15133624     0.00700
N856        N  0.23838308  0.69010723  0.14969977     0.00800
N857        N  0.16099672  0.78382272  0.08318070    -0.47200
H858        H  0.18832649  0.85219988  0.17091758     0.06600
N859        N  0.17799529  0.77163582  0.14939344     0.01100
N860        N  0.24048196  0.69054066  0.10009910     0.00800
C861        C  0.25777823  0.65735993  0.07372251     0.42400
N862        N  0.31825433  0.78251205  0.15169910    -0.25800
C863        C  0.21676605  0.85030742  0.08518656    -0.06700
N864        N  0.27213915  0.85100441  0.16817339    -0.46900
N865        N  0.22987118  0.66919667  0.08431973    -0.47100
C866        C  0.24673629  0.86560131  0.07478929     0.42200
N867        N  0.18075102  0.77273240  0.09979426     0.01100
N868        N  0.31925482  0.78407167  0.10228791    -0.25800
N869        N  0.22762424  0.82860677  0.15139602    -0.26300
N870        N  0.32215964  0.75108350  0.10158478     0.00700
H871        H  0.34158495  0.82428749  0.08343977     0.06600
H872        H  0.31379369  0.66866166  0.08207436     0.06600
N873        N  0.18387855  0.73972230  0.09957563    -0.26300
N874        N  0.27174414  0.69258837  0.15025576    -0.26000
N875        N  0.26228136  0.83298566  0.10206279     0.01100
C876        C  0.14172399  0.75429919  0.17387249     0.42500
C877        C  0.33753287  0.79428997  0.16875905    -0.07200
N878        N  0.27379524  0.69305548  0.10080016    -0.26000
H879        H  0.30990751  0.66904258  0.17114502     0.06600
N880        N  0.15483879  0.78210881  0.16408477    -0.47200
H881        H  0.34185626  0.82048249  0.17272251     0.06600
C882        C  0.35414265  0.76898566  0.07440221     0.42300
C883        C  0.21498960  0.84769701  0.16820230    -0.06700
Co884      Co  0.29063104  0.80813933  0.12699919     0.73800
N885        N  0.34094893  0.73761371  0.16731454    -0.46900
C886        C  0.15109674  0.75653422  0.07115806     0.42600
N887        N  0.27396363  0.85387834  0.08631518    -0.46900
Co888      Co  0.29769173  0.72116016  0.12595956     0.73900
C889        C  0.28704110  0.67291297  0.08484681    -0.07200
C890        C  0.15887253  0.72539278  0.16387038    -0.06800
N891        N  0.22894638  0.83050081  0.10176120    -0.26300
N892        N  0.22627242  0.66931816  0.16529431    -0.47100
H893        H  0.16346840  0.70085685  0.07814680     0.06600
C894        C  0.33846030  0.79760568  0.08593916    -0.07200
Cl895      Cl  0.25048632  0.76122837  0.12579618    -0.50200
C896        C  0.35195930  0.76433540  0.17926645     0.42300
H897        H  0.19022958  0.85394653  0.08125946     0.06500
N898        N  0.34299950  0.74101214  0.08528467    -0.46900
C899        C  0.10698395  0.99352738  0.67693041     0.42200
N900        N  0.07196435  0.97500008  0.65175092     0.01100
C901        C  0.46620819  0.56950256  0.58034706    -0.06800
H902        H  0.43731019  0.58183107  0.66552576     0.06600
C903        C  0.40781845  0.95715232  0.66245273    -0.07200
Co904      Co  0.03908649  0.53339540  0.62299173     0.74200
N905        N  0.47648180  0.55594337  0.64688968    -0.26300
Co906      Co  0.45152513  0.52583804  0.62304491     0.74100
C907        C  0.39223544  0.98835969  0.67063217     0.42300
N908        N  0.48718113  0.91767546  0.65003684     0.00700
N909        N  0.42546798  0.50059662  0.64862700     0.00800
N910        N  0.02277067  0.57576795  0.58066347    -0.47200
H911        H  0.09218465  0.54970550  0.66710377     0.06600
N912        N  0.01024109  0.55962998  0.64673518     0.01100
N913        N  0.42750979  0.49472187  0.59932808     0.00800
C914        C  0.39894393  0.97757158  0.56879514     0.42400
N915        N  0.01979430  0.91983267  0.65425221    -0.25800
C916        C  0.08642340  0.51699991  0.58243220    -0.06700
N917        N  0.09448724  0.96522031  0.66724778    -0.46900
N918        N  0.40698251  0.50449372  0.58277112    -0.47100
C919        C  0.10078660  0.98392125  0.57284662     0.42200
N920        N  0.01097333  0.55590036  0.59695083     0.01100
N921        N  0.01942734  0.91529105  0.60455633    -0.25800
N922        N  0.06669198  0.50994709  0.64879611    -0.26300
N923        N  0.48895540  0.91284270  0.60035838     0.00700
H924        H  0.05764201  0.89139417  0.58413058     0.06600
H925        H  0.40854849  0.92218926  0.57871285     0.06600
N926        N  0.47806048  0.55075245  0.59754399    -0.26300
N927        N  0.42998777  0.96701888  0.64639250    -0.26000
N928        N  0.07043048  0.97060087  0.60191858     0.01100
C929        C  0.49374533  0.59200954  0.67337560     0.42500
C930        C  0.03174409  0.90142830  0.67163308    -0.07200
N931        N  0.43287347  0.96223968  0.59720109    -0.26000
H932        H  0.40209909  0.93136554  0.66683695     0.06600
N933        N  0.02186198  0.58033058  0.66254765    -0.47200
H934        H  0.05826384  0.89644771  0.67458767     0.06600
C935        C  0.50547085  0.87923371  0.57392501     0.42300
C936        C  0.08704970  0.52323524  0.66472293    -0.06700
Co937      Co  0.04595908  0.94456597  0.62819571     0.73800
N938        N  0.47525573  0.89811203  0.66641888    -0.46900
C939        C  0.49633816  0.58414639  0.56964874     0.42600
N940        N  0.08989781  0.95780553  0.58572235    -0.46900
Co941      Co  0.45933385  0.93930073  0.62359029     0.73900
C942        C  0.41327072  0.94875411  0.58094203    -0.07200
C943        C  0.46391842  0.57711336  0.66249672    -0.06800
N944        N  0.06678833  0.50599796  0.59944126    -0.26300
N945        N  0.40281994  0.51451433  0.66219681    -0.47100
H946        H  0.43967180  0.57426888  0.57728916     0.06600
C947        C  0.03115653  0.89557938  0.58782898    -0.07200
Cl948      Cl  0.50085052  0.98530872  0.62235946    -0.50200
C949        C  0.50228422  0.88715730  0.67851708     0.42300
H950        H  0.09075428  0.54316248  0.57847554     0.06500
N951        N  0.47788389  0.89177141  0.58458395    -0.46900
C952        C  0.50140587  0.58711885  0.32437348     0.42200
N953        N  0.48617328  0.55599737  0.35257031     0.01100
C954        C  0.08827610  0.95439222  0.41716579    -0.06800
H955        H  0.09421884  0.93243823  0.33027320     0.06600
C956        C  0.46211847  0.89865294  0.33337161    -0.07200
Co957      Co  0.04409276  0.52824008  0.37782425     0.74200
N958        N  0.06870612  0.96920523  0.35116412    -0.26300
Co959      Co  0.04122215  0.94243317  0.37552997     0.74100
C960        C  0.49198057  0.88446636  0.32197189     0.42300
N961        N  0.42466090  0.97421264  0.35221354     0.00700
N962        N  0.01247133  0.91976635  0.35025539     0.00800
N963        N  0.08884947  0.51060149  0.41863152    -0.47200
H964        H  0.05717464  0.58007748  0.33357311     0.06600
N965        N  0.06767595  0.49986720  0.35277544     0.01100
N966        N  0.01302395  0.91630029  0.40002144     0.00800
C967        C  0.49419092  0.87999567  0.42706843     0.42400
N968        N  0.42915313  0.50627446  0.35305213    -0.25800
C969        C  0.03341265  0.57607397  0.41888165    -0.06700
N970        N  0.47430137  0.57570808  0.33621472    -0.46900
N971        N  0.02482118  0.89564051  0.41586762    -0.47100
C972        C  0.50337598  0.58635535  0.43046201     0.42200
N973        N  0.06839281  0.49929057  0.40250616     0.01100
N974        N  0.43116494  0.50468454  0.40242172    -0.25800
N975        N  0.01830339  0.55633300  0.35331549    -0.26300
N976        N  0.42720201  0.97342711  0.40180607     0.00700
H977        H  0.40851028  0.54258723  0.42354173     0.06600
H978        H  0.43754038  0.89190592  0.42084232     0.06600
N979        N  0.06883227  0.96697139  0.40056398    -0.26300
N980        N  0.47464025  0.91755690  0.35041069    -0.26000
N981        N  0.48710633  0.55508280  0.40260828     0.01100
C982        C  0.10207912  0.98905148  0.32389330     0.42500
C983        C  0.40729016  0.51925539  0.33800946    -0.07200
N984        N  0.47593076  0.91570373  0.40026205    -0.26000
H985        H  0.43548328  0.89415162  0.33031433     0.06600
N986        N  0.08816873  0.51173174  0.33684993    -0.47200
H987        H  0.40233663  0.54576532  0.33573348     0.06600
C988        C  0.39534218  0.98930676  0.42952043     0.42300
C989        C  0.03054965  0.57579339  0.33660424    -0.06700
Co990      Co  0.45802676  0.53108744  0.37764438     0.73800
N991        N  0.40122038  0.96369859  0.33762910    -0.46900
C992        C  0.10250732  0.98387976  0.42859078     0.42600
N993        N  0.47587435  0.57502037  0.41897168    -0.46900
Co994      Co  0.45007172  0.94474281  0.37616700     0.73900
C995        C  0.46404825  0.89568663  0.41690938    -0.07200
C996        C  0.08885072  0.95839128  0.33430862    -0.06800
N997        N  0.02002235  0.55614131  0.40283371    -0.26300
N998        N  0.02463834  0.90095908  0.33367611    -0.47100
H999        H  0.09274668  0.92794029  0.41998592     0.06600
C1000       C  0.41226676  0.51634288  0.41955375    -0.07200
Cl1001     Cl  0.49747409  0.98498053  0.37587619    -0.50200
C1002       C  0.38822153  0.99144948  0.32766265     0.42300
H1003       H  0.06021110  0.58052648  0.42101505     0.06500
N1004       N  0.40644903  0.96222872  0.41781627    -0.46900
C1005       C  0.49798175  0.76546783  0.51293484     0.02000
C1006       C  0.49827400  0.76588105  0.48895633     0.02000
C1007       C  0.00022599  0.74036304  0.47778050    -0.18500
C1008       C  0.50012446  0.70417768  0.48859726     0.02000
C1009       C  0.50000071  0.70381246  0.51277855     0.02000
C1010       C  0.49883798  0.73459814  0.52450894    -0.18500
H1011       H  0.49843081  0.73460737  0.54296149     0.04000
H1012       H  0.00132170  0.74133847  0.45934818     0.04000
C1013       C  0.27901638  0.98826142  0.48945563     0.02000
C1014       C  0.27864423  0.98145169  0.51298861     0.02000
C1015       C  0.24757333  0.97878404  0.52447500    -0.18500
C1016       C  0.21668483  0.98178769  0.51275269     0.02000
C1017       C  0.21726141  0.98813756  0.48908133     0.02000
C1018       C  0.24835467  0.99153408  0.47776480    -0.18500
H1019       H  0.24870934  0.99554851  0.45950348     0.04000
H1020       H  0.24750965  0.97463389  0.54271592     0.04000
C1021       C  0.99995300  0.70692158  0.26411220     0.86200
C1022       C  0.46741595  0.70753074  0.24781738    -0.54000
C1023       C  0.46603068  0.73789552  0.23704323     0.09100
C1024       C  0.99964658  0.76420845  0.24190433     0.20100
C1025       C  0.03049266  0.71195824  0.24790707    -0.54700
C1026       C  0.03020701  0.74178252  0.23636948     0.09200
C1027       C  0.50019247  0.73353044  0.27827290    -0.54300
C1028       C  0.00115998  0.76818326  0.26800932     0.09800
H1029       H  0.44789139  0.68845674  0.24596036     0.14300
H1030       H  0.99960667  0.78821080  0.23224689     0.00100
H1031       H  0.05095357  0.69431715  0.24538994     0.14600
H1032       H  0.50087447  0.73161543  0.29670469     0.14400
C1033       C  0.02203532  0.83425976  0.31265734    -0.26600
C1034       C  0.49379399  0.85501623  0.30650541    -0.14700
C1035       C  0.47210274  0.85022841  0.28752356     0.36000
C1036       C  0.47517667  0.82100092  0.27423365    -0.26000
C1037       C  0.49925841  0.79623937  0.27960308    -0.15300
C1038       C  0.02414714  0.80467879  0.29983284     0.37100
N1039       N  0.04709816  0.77852164  0.30674849    -0.89500
H1040       H  0.03701395  0.83657466  0.32805390     0.18200
H1041       H  0.45791959  0.81711740  0.26010538     0.18200
N1042       N  0.44738663  0.87472403  0.28099259    -0.88600
H1043       H  0.05992916  0.78515259  0.32166868     0.35500
H1044       H  0.06550590  0.77605563  0.29410255     0.40600
H1045       H  0.45954920  0.89790777  0.27899702     0.40300
H1046       H  0.42935112  0.87672478  0.29387934     0.35100
C1047       C  0.47327361  0.63726510  0.30781102    -0.26600
C1048       C  0.49967718  0.61378867  0.30667204    -0.14700
C1049       C  0.02291196  0.62050460  0.29030968     0.36000
C1050       C  0.02206686  0.64820639  0.27556403    -0.26000
C1051       C  0.49770421  0.66972889  0.27646450    -0.15300
C1052       C  0.47187952  0.66477237  0.29288404     0.37100
N1053       N  0.44435546  0.68805345  0.29475789    -0.89500
H1054       H  0.45396745  0.63488619  0.32082407     0.18200
H1055       H  0.04046161  0.64860842  0.26204849     0.18200
N1056       N  0.04705740  0.59460539  0.28560822    -0.88600
H1057       H  0.44428029  0.69775476  0.31128370     0.35500
H1058       H  0.42171558  0.67481550  0.29231481     0.40600
H1059       H  0.03453446  0.57143309  0.28514198     0.40300
H1060       H  0.06549891  0.59440175  0.29830793     0.35100
C1061       C  0.47799164  0.63993113  0.44302789    -0.26600
C1062       C  0.50252348  0.61501803  0.44655128    -0.14700
C1063       C  0.02856173  0.62583100  0.46324451     0.36000
C1064       C  0.02677869  0.65439528  0.47714120    -0.26000
C1065       C  0.50026482  0.67287433  0.47459661    -0.15300
C1066       C  0.47645840  0.66844388  0.45691014     0.37100
N1067       N  0.45029754  0.69274798  0.45313091    -0.89500
H1068       H  0.45995058  0.63752080  0.42919455     0.18200
H1069       H  0.04604349  0.65825380  0.49005055     0.18200
N1070       N  0.05495274  0.60209870  0.46776925    -0.88600
H1071       H  0.42687251  0.68060366  0.45460909     0.35500
H1072       H  0.45255583  0.70166177  0.43645357     0.40600
H1073       H  0.07199349  0.60220496  0.45423301     0.40300
H1074       H  0.04423115  0.57819362  0.46955422     0.35100
C1075       C  0.46543766  0.83709283  0.45181976    -0.26600
C1076       C  0.49573795  0.85253514  0.44454945    -0.14700
C1077       C  0.02954555  0.84374960  0.45439006     0.36000
C1078       C  0.02885645  0.81685269  0.46981715    -0.26000
C1079       C  0.49673371  0.79752676  0.47551667    -0.15300
C1080       C  0.46576523  0.80966988  0.46697138     0.37100
N1081       N  0.43460380  0.79359479  0.47317281    -0.89500
H1082       H  0.44125928  0.84556309  0.44528750     0.18200
H1083       H  0.05258264  0.80647409  0.47590126     0.18200
N1084       N  0.06199468  0.85718770  0.44833724    -0.88600
H1085       H  0.42294863  0.78493543  0.45829891     0.35500
H1086       H  0.41879473  0.81171863  0.48040985     0.40600
H1087       H  0.06212511  0.88289547  0.45191210     0.40300
H1088       H  0.06602998  0.85339134  0.43096545     0.35100
C1089       C  0.14923464  0.01470199  0.44751727    -0.26600
C1090       C  0.12979023  0.98517040  0.44583629    -0.14700
C1091       C  0.13773970  0.95743498  0.45992807     0.36000
C1092       C  0.16603927  0.95927753  0.47435497    -0.26000
C1093       C  0.18602664  0.98835424  0.47527384    -0.15300
C1094       C  0.17732360  0.01640634  0.46200082     0.37100
N1095       N  0.19949731  0.54321740  0.46108570    -0.89500
H1096       H  0.14411805  0.53419959  0.43627622     0.18200
H1097       H  0.17292338  0.93775866  0.48468391     0.18200
N1098       N  0.11716335  0.92763068  0.45970645    -0.88600
H1099       H  0.18119818  0.06621825  0.46796743     0.35500
H1100       H  0.20623009  0.05179641  0.44676892     0.40600
H1101       H  0.09330482  0.93419798  0.46600321     0.40300
H1102       H  0.12693278  0.90948210  0.47078621     0.35100
C1103       C  0.34799249  0.51414987  0.44829078    -0.26600
C1104       C  0.36739424  0.98869472  0.44656662    -0.14700
C1105       C  0.35236048  0.95816153  0.45375118     0.36000
C1106       C  0.32455573  0.95864080  0.46861285    -0.26000
C1107       C  0.31084842  0.98901282  0.47616419    -0.15300
C1108       C  0.31921475  0.51402493  0.46218257     0.37100
N1109       N  0.29804763  0.54319575  0.46314275    -0.89500
H1110       H  0.35331414  0.53647069  0.43836765     0.18200
H1111       H  0.31284239  0.93513172  0.47368201     0.18200
N1112       N  0.36456254  0.92652745  0.44560488    -0.88600
H1113       H  0.28943618  0.54834191  0.44666629     0.35500
H1114       H  0.31291471  0.56348625  0.46850166     0.40600
H1115       H  0.34462094  0.91435068  0.43722960     0.40300
H1116       H  0.37149204  0.91191551  0.45965039     0.35100
C1117       C  0.14839957  0.95328560  0.55423345    -0.26600
C1118       C  0.12729375  0.98167239  0.55494467    -0.14700
C1119       C  0.13721874  0.51111089  0.54069008     0.36000
C1120       C  0.16567718  0.50870796  0.52650005    -0.26000
C1121       C  0.18443503  0.98007656  0.52586480    -0.15300
C1122       C  0.17672329  0.95225746  0.53977882     0.37100
N1123       N  0.19771041  0.92295068  0.53928356    -0.89500
H1124       H  0.14364857  0.93220091  0.56547505     0.18200
H1125       H  0.17257237  0.53001969  0.51595632     0.18200
N1126       N  0.11687912  0.54082125  0.53980761    -0.88600
H1127       H  0.20684176  0.91868763  0.55574360     0.35500
H1128       H  0.18254017  0.90247382  0.53467961     0.40600
H1129       H  0.10811966  0.54380859  0.52312541     0.40300
H1130       H  0.13234371  0.56139965  0.54372014     0.35100
C1131       C  0.35084822  0.94834003  0.54946983    -0.26600
C1132       C  0.37004590  0.97777730  0.55266716    -0.14700
C1133       C  0.35882859  0.50472390  0.54288828     0.36000
C1134       C  0.33112938  0.50414138  0.52793702    -0.26000
C1135       C  0.31046967  0.97878473  0.52609365    -0.15300
C1136       C  0.32130054  0.94836627  0.53620722     0.37100
N1137       N  0.30298030  0.91727334  0.53365783    -0.89500
H1138       H  0.35828052  0.92513525  0.55767336     0.18200
H1139       H  0.32453855  0.52679478  0.51868324     0.18200
N1140       N  0.37842653  0.53488505  0.54506693    -0.88600
H1141       H  0.31909605  0.90026421  0.52553957     0.35500
H1142       H  0.28195187  0.91986623  0.52303059     0.40600
H1143       H  0.36223031  0.55419253  0.55021872     0.40300
H1144       H  0.38799446  0.54109676  0.52901569     0.35100
C1145       C  0.02261942  0.64061130  0.55657296    -0.26600
C1146       C  0.49768419  0.61328778  0.55378170    -0.14700
C1147       C  0.47444002  0.61775729  0.53559204     0.36000
C1148       C  0.47555843  0.64722124  0.52249393    -0.26000
C1149       C  0.50018946  0.67208939  0.52641369    -0.15300
C1150       C  0.02452419  0.66991373  0.54324932     0.37100
N1151       N  0.05106330  0.69404521  0.54719987    -0.89500
H1152       H  0.04079617  0.63703419  0.57019649     0.17800
H1153       H  0.45690833  0.65074068  0.50915299     0.18200
N1154       N  0.45036181  0.59244593  0.52928571    -0.88600
H1155       H  0.06616453  0.69482523  0.53259738     0.35500
H1156       H  0.06676209  0.68627796  0.56054887     0.40600
H1157       H  0.43218706  0.59014929  0.54203359     0.40300
H1158       H  0.46305430  0.56960136  0.52729432     0.35100
C1159       C  0.02401725  0.82230802  0.52843649    -0.26600
C1160       C  0.49875293  0.79671519  0.52653481    -0.14700
C1161       C  0.46998194  0.80802551  0.53844092     0.36000
C1162       C  0.47273599  0.83562790  0.55301421    -0.26000
C1163       C  0.50393789  0.85206495  0.55652439    -0.15300
C1164       C  0.02535968  0.84981119  0.54338740     0.37100
N1165       N  0.05349368  0.87253197  0.54225164    -0.89500
H1166       H  0.04539499  0.81751270  0.51737951     0.18200
H1167       H  0.45035386  0.84353871  0.56222028     0.18200
N1168       N  0.43780227  0.79155586  0.53637157    -0.88600
H1169       H  0.05448408  0.88247480  0.52578415     0.35500
H1170       H  0.07570796  0.85882838  0.54501736     0.40600
H1171       H  0.44041653  0.76661482  0.54164535     0.40300
H1172       H  0.43075532  0.79163771  0.51924678     0.35100
C1173       C  0.05519079  0.73339663  0.19833183    -0.26600
C1174       C  0.05656864  0.75007029  0.21930047    -0.14700
C1175       C  0.08460745  0.77125122  0.22417800     0.36000
C1176       C  0.11177111  0.77276468  0.20877151    -0.26000
C1177       C  0.11138254  0.75407016  0.18857362    -0.15300
C1178       C  0.08194357  0.73560100  0.18280810     0.37100
N1179       N  0.07798560  0.71975587  0.16108476    -0.89500
H1180       H  0.03334585  0.71797538  0.19418547     0.18200
H1181       H  0.13378052  0.78794055  0.21293158     0.18200
N1182       N  0.08704230  0.79059589  0.24474520    -0.88600
H1183       H  0.09611154  0.70089222  0.15937735     0.35500
H1184       H  0.08183936  0.73780531  0.14839538     0.40600
H1185       H  0.06534683  0.78794780  0.25463210     0.40300
H1186       H  0.08814353  0.81594299  0.24009416     0.35100
C1187       C  0.44200629  0.75669411  0.20013609    -0.26600
C1188       C  0.43665180  0.74808872  0.22299601    -0.14700
C1189       C  0.40326498  0.74842976  0.23188128     0.36000
C1190       C  0.37599995  0.75572093  0.21752392    -0.26000
C1191       C  0.38130155  0.76262224  0.19448843    -0.15300
C1192       C  0.41447339  0.76367740  0.18567465     0.37100
N1193       N  0.41982049  0.77032760  0.16189391    -0.89500
H1194       H  0.46756699  0.75665012  0.19338286     0.18200
H1195       H  0.35041177  0.75490952  0.22422587     0.18200
N1196       N  0.39625553  0.74188664  0.25539709    -0.88600
H1197       H  0.44566424  0.76941925  0.15801147     0.35500
H1198       H  0.41191835  0.79493738  0.15867409     0.40600
H1199       H  0.41136657  0.75772451  0.26535633     0.40300
H1200       H  0.40218345  0.71696640  0.25913636     0.35100
C1201       C  0.23248854  0.59623718  0.02669066    -0.26600
C1202       C  0.25840616  0.57228969  0.02828278    -0.14700
C1203       C  0.28463414  0.57704834  0.04427570     0.36000
C1204       C  0.28437534  0.60533992  0.05851649    -0.26000
C1205       C  0.25790860  0.62886380  0.05744755    -0.15300
C1206       C  0.23182434  0.62422163  0.04114203     0.37100
N1207       N  0.20454143  0.64762875  0.03864712    -0.89500
H1208       H  0.21213484  0.59270451  0.01451333     0.18200
H1209       H  0.30453501  0.60833544  0.07089340     0.18200
N1210       N  0.31154296  0.55306469  0.04612017    -0.88600
H1211       H  0.21475465  0.67157089  0.03595944     0.35500
H1212       H  0.19030716  0.64778025  0.05361915     0.40600
H1213       H  0.31175902  0.54379426  0.06277722     0.40300
H1214       H  0.33447656  0.56560792  0.04330245     0.35100
C1215       C  0.21956769  0.91339217  0.05412909    -0.26600
C1216       C  0.24785403  0.89251629  0.05724614    -0.14700
C1217       C  0.27707077  0.89826779  0.04397554     0.36000
C1218       C  0.27823238  0.92567958  0.02887045    -0.26000
C1219       C  0.25051399  0.94744834  0.02661007    -0.15300
C1220       C  0.22037495  0.94054858  0.03889179     0.37100
N1221       N  0.19028093  0.96067237  0.03657700    -0.89500
H1222       H  0.19675211  0.90916161  0.06396601     0.18200
H1223       H  0.30122625  0.93051844  0.01932263     0.18200
N1224       N  0.30556189  0.87619365  0.04566211    -0.88600
H1225       H  0.17092545  0.94494792  0.03065322     0.35500
H1226       H  0.19309872  0.97931128  0.02422487     0.40600
H1227       H  0.32674862  0.89045171  0.05032328     0.40300
H1228       H  0.31001993  0.86610450  0.02952459     0.35100
C1229       C  0.23309218  0.60817490  0.94618058    -0.26600
C1230       C  0.25945395  0.63175070  0.94842660    -0.14700
C1231       C  0.28391389  0.62676171  0.96584277     0.36000
C1232       C  0.28238737  0.59783184  0.97954461    -0.26000
C1233       C  0.25666945  0.57374458  0.97662469    -0.15300
C1234       C  0.23133549  0.57946359  0.96007418     0.37100
N1235       N  0.20388173  0.55594453  0.95740429    -0.89500
H1236       H  0.21387215  0.61185783  0.93323339     0.18200
H1237       H  0.30179171  0.59388344  0.99233557     0.18200
N1238       N  0.30993971  0.65088644  0.97059676    -0.88600
H1239       H  0.18746541  0.56362873  0.94442895     0.35500
H1240       H  0.18983039  0.55611332  0.97247948     0.40600
H1241       H  0.29875460  0.67446690  0.97272543     0.40300
H1242       H  0.32678397  0.65171909  0.95696179     0.35100
C1243       C  0.27904010  0.91220688  0.94615477    -0.26600
C1244       C  0.24879013  0.89351901  0.94450976    -0.14700
C1245       C  0.22170195  0.90179815  0.95949486     0.36000
C1246       C  0.22528514  0.92854355  0.97483367    -0.26000
C1247       C  0.25489600  0.94796354  0.97545531    -0.15300
C1248       C  0.28223032  0.93941967  0.96123547     0.37100
N1249       N  0.31293288  0.95892649  0.96187958    -0.89500
H1250       H  0.30018847  0.90621778  0.93515464     0.18200
H1251       H  0.20412765  0.93517535  0.98568286     0.18200
N1252       N  0.19008821  0.88416648  0.95963740    -0.88600
H1253       H  0.33056195  0.94967156  0.95019968     0.35500
H1254       H  0.32365184  0.95590667  0.97803302     0.40600
H1255       H  0.19469184  0.85839649  0.96106523     0.40300
H1256       H  0.17702566  0.88967772  0.94464903     0.35100
C1257       C  0.46832143  0.64260575  0.69143662    -0.26600
C1258       C  0.49498600  0.61948867  0.69035074    -0.14700
C1259       C  0.02526273  0.62498788  0.70419166     0.36000
C1260       C  0.02638840  0.65216484  0.71943139    -0.26000
C1261       C  0.49806139  0.67513988  0.72068365    -0.15300
C1262       C  0.46975382  0.67036870  0.70611027     0.37100
N1263       N  0.44254611  0.69418260  0.70577451    -0.89500
H1264       H  0.44661726  0.63985752  0.68027043     0.18200
H1265       H  0.04973530  0.65597437  0.72849864     0.18200
N1266       N  0.05405898  0.60308952  0.70199154    -0.88600
H1267       H  0.42007488  0.68147794  0.70971677     0.35500
H1268       H  0.44035266  0.70370346  0.68924771     0.40600
H1269       H  0.04673589  0.57928220  0.70773888     0.40300
H1270       H  0.07394253  0.61088660  0.71253250     0.35100
C1271       C  0.47422843  0.83550826  0.69263332    -0.26600
C1272       C  0.50069765  0.85893035  0.69496051    -0.14700
C1273       C  0.52483480  0.85425071  0.71261872     0.36000
C1274       C  0.02094801  0.82437864  0.73029922    -0.26000
C1275       C  0.49874933  0.80061714  0.72227103    -0.15300
C1276       C  0.47304445  0.80656235  0.70614843     0.37100
N1277       N  0.44571016  0.78310592  0.70347152    -0.89500
H1278       H  0.45483663  0.83904861  0.67977482     0.18200
H1279       H  0.03978299  0.81986363  0.74334557     0.18200
N1280       N  0.55040921  0.87867427  0.71776945    -0.88600
H1281       H  0.44551168  0.77487952  0.68658139     0.35500
H1282       H  0.42298373  0.79578512  0.70653426     0.40600
H1283       H  0.03813152  0.90125745  0.72452446     0.40300
H1284       H  0.06673747  0.87828300  0.70941074     0.35100
C1285       C  0.07575887  0.77340113  0.78527833    -0.26600
C1286       C  0.05844149  0.74266860  0.78370758    -0.14700
C1287       C  0.06852254  0.71563624  0.79779772     0.36000
C1288       C  0.09694589  0.71915383  0.81189529    -0.26000
C1289       C  0.11523866  0.74937069  0.81287853    -0.15300
C1290       C  0.10410869  0.77695611  0.79970640     0.37100
N1291       N  0.12201709  0.80828291  0.80040780    -0.89500
H1292       H  0.06811331  0.79431844  0.77469191     0.18200
H1293       H  0.10442248  0.69808797  0.82238933     0.18200
N1294       N  0.04974706  0.68458995  0.79775291    -0.88600
H1295       H  0.10499004  0.82695941  0.80540912     0.35500
H1296       H  0.13025599  0.81392579  0.78393296     0.40600
H1297       H  0.06059040  0.66713989  0.80889231     0.40300
H1298       H  0.02544458  0.68971344  0.80390993     0.35100
C1299       C  0.40656768  0.74514977  0.77088501    -0.26600
C1300       C  0.44002262  0.74950918  0.77870337    -0.14700
C1301       C  0.44542510  0.76077433  0.80114695     0.36000
C1302       C  0.41755018  0.76644724  0.81555173    -0.26000
C1303       C  0.38428919  0.76082802  0.80795149    -0.15300
C1304       C  0.37865287  0.75074004  0.78530295     0.37100
N1305       N  0.34462874  0.74565086  0.77720240    -0.89500
H1306       H  0.40224045  0.73697640  0.75353390     0.18200
H1307       H  0.42196250  0.77407433  0.83300790     0.18200
N1308       N  0.47916646  0.76479648  0.80975923    -0.88600
H1309       H  0.34480812  0.73801902  0.76018096     0.35500
H1310       H  0.33232700  0.76888983  0.77763923     0.40600
H1311       H  0.48191622  0.78957705  0.81536013     0.40300
H1312       H  0.48207921  0.74889554  0.82379707     0.35100
C1313       C  0.31353453  0.53028786  0.70545591    -0.26600
C1314       C  0.31043226  0.00147367  0.71868509    -0.14700
C1315       C  0.32322368  0.96912799  0.71410012     0.36000
C1316       C  0.34961583  0.96514088  0.69820712    -0.26000
C1317       C  0.36373902  0.99298667  0.68686227    -0.15300
C1318       C  0.34088811  0.52614664  0.69044157     0.37100
N1319       N  0.35155037  0.55404424  0.67659074    -0.89500
H1320       H  0.30094482  0.55442646  0.70625609     0.18200
H1321       H  0.35936128  0.94016446  0.69509079     0.18200
N1322       N  0.31044983  0.94040884  0.72602670    -0.88600
H1323       H  0.33788862  0.57573244  0.68059184     0.35500
H1324       H  0.34548037  0.54821452  0.65972284     0.40600
H1325       H  0.33070913  0.92896422  0.73448028     0.40300
H1326       H  0.30108377  0.92340216  0.71400342     0.35100
C1327       C  0.13207761  0.99684299  0.71555626    -0.26600
C1328       C  0.13717167  0.99529192  0.69197454    -0.14700
C1329       C  0.17065982  0.99812706  0.68332631     0.36000
C1330       C  0.19793896  0.00258923  0.69853090    -0.26000
C1331       C  0.19262525  0.00515442  0.72207252    -0.15300
C1332       C  0.15923402  0.00195895  0.73060466     0.37100
N1333       N  0.15212900  0.00340973  0.75449105    -0.89500
H1334       H  0.10660056  0.99483277  0.72232603     0.18200
H1335       H  0.21702151  0.50229818  0.69365678     0.18200
N1336       N  0.17307330  0.49726905  0.66009139    -0.88600
H1337       H  0.15851569  0.02722055  0.76058572     0.35500
H1338       H  0.16706016  0.98556930  0.76283125     0.40600
H1339       H  0.15603706  0.99427834  0.64960913     0.40300
H1340       H  0.19322279  0.97659928  0.65622674     0.35100
C1341       C  0.21972569  0.59668985  0.78329622    -0.26600
C1342       C  0.24712673  0.57422574  0.78078860    -0.14700
C1343       C  0.27683885  0.58019964  0.79375728     0.36000
C1344       C  0.27889405  0.60803368  0.80821283    -0.26000
C1345       C  0.25150247  0.62994170  0.81079581    -0.15300
C1346       C  0.22158726  0.62432664  0.79814759     0.37100
N1347       N  0.19305933  0.64652670  0.80053149    -0.89500
H1348       H  0.19624267  0.59282773  0.77434620     0.18200
H1349       H  0.30176574  0.61166220  0.81813918     0.18200
N1350       N  0.30488972  0.55741779  0.79276860    -0.88600
H1351       H  0.17277517  0.63861614  0.79037806     0.35500
H1352       H  0.20037992  0.67013960  0.79443054     0.40600
H1353       H  0.32637715  0.57090848  0.78771339     0.40300
H1354       H  0.30923353  0.54807837  0.80915229     0.35100
C1355       C  0.22307525  0.92634474  0.77697673    -0.26600
C1356       C  0.25349010  0.94448728  0.77566766    -0.14700
C1357       C  0.28269067  0.93188636  0.78674281     0.36000
C1358       C  0.27992308  0.90308873  0.80033516    -0.26000
C1359       C  0.24875394  0.88641568  0.80337203    -0.15300
C1360       C  0.22039259  0.89749770  0.79072585     0.37100
N1361       N  0.18866925  0.88010254  0.79199003    -0.89500
H1362       H  0.20078570  0.93553608  0.76819708     0.18200
H1363       H  0.30231250  0.89458443  0.80933931     0.18200
N1364       N  0.31523516  0.94817666  0.78527569    -0.88600
H1365       H  0.18191428  0.87257990  0.77555358     0.35500
H1366       H  0.17032579  0.89698931  0.79776340     0.40600
H1367       H  0.31474454  0.96860201  0.77414339     0.40300
H1368       H  0.33222126  0.93097102  0.77821728     0.35100
C1369       C  0.10452335  0.72690621  0.05074847    -0.26600
C1370       C  0.12351243  0.75642980  0.05410572    -0.14700
C1371       C  0.11434931  0.78586094  0.04225024     0.36000
C1372       C  0.08546272  0.78578109  0.02832255    -0.26000
C1373       C  0.06567033  0.75670869  0.02592933    -0.15300
C1374       C  0.07562531  0.72686029  0.03701076     0.37100
N1375       N  0.05654915  0.69633038  0.03492983    -0.89500
H1376       H  0.11111930  0.70395405  0.05958151     0.18200
H1377       H  0.07793385  0.80877407  0.01983743     0.18200
N1378       N  0.13418804  0.81588909  0.04435506    -0.88600
H1379       H  0.05460684  0.69022611  0.01770875     0.35500
H1380       H  0.03216165  0.70032240  0.04126468     0.40600
H1381       H  0.11847329  0.83496390  0.05047660     0.40300
H1382       H  0.14246869  0.82282263  0.02811405     0.35100
C1383       C  0.42032241  0.79836403  0.03128287    -0.26600
C1384       C  0.43729682  0.76837884  0.02678726    -0.14700
C1385       C  0.42566172  0.73817231  0.03656403     0.36000
C1386       C  0.39772099  0.73887613  0.05142588    -0.26000
C1387       C  0.38126141  0.76922761  0.05674027    -0.15300
C1388       C  0.39215603  0.79904651  0.04575030     0.37100
N1389       N  0.37486554  0.83020334  0.04894176    -0.89500
H1390       H  0.42932385  0.82160513  0.02377111     0.18200
H1391       H  0.38938666  0.71569102  0.05932957     0.18200
N1392       N  0.44241314  0.70702355  0.03149070    -0.88600
H1393       H  0.36691419  0.83879386  0.03298869     0.35500
H1394       H  0.39216373  0.84764817  0.05549141     0.40600
H1395       H  0.46693822  0.70828650  0.03820030     0.40300
H1396       H  0.43029394  0.68699407  0.03967228     0.35100
C1397       C  0.10682250  0.73059881  0.95366527    -0.26600
C1398       C  0.12309432  0.76088507  0.94783958    -0.14700
C1399       C  0.11029890  0.79136790  0.95660420     0.36000
C1400       C  0.08124134  0.79104052  0.97037707    -0.26000
C1401       C  0.06481678  0.76079018  0.97563710    -0.15300
C1402       C  0.07768282  0.73040659  0.96722475     0.37100
N1403       N  0.06060300  0.69936863  0.97186486    -0.89500
H1404       H  0.11581567  0.70686765  0.94709984     0.18200
H1405       H  0.07118717  0.81453713  0.97674263     0.18200
N1406       N  0.12649562  0.82271525  0.95150214    -0.88600
H1407       H  0.05345244  0.68871940  0.95632004     0.35500
H1408       H  0.07793656  0.68313041  0.97962094     0.40600
H1409       H  0.13329988  0.83407918  0.96688225     0.40300
H1410       H  0.10881338  0.83820158  0.94339993     0.35100
C1411       C  0.41903469  0.79771232  0.97350178    -0.26600
C1412       C  0.43744637  0.76795066  0.97615922    -0.14700
C1413       C  0.42676594  0.73853610  0.96496146     0.36000
C1414       C  0.39874072  0.73975045  0.95053395    -0.26000
C1415       C  0.38097331  0.76988771  0.94690483    -0.15300
C1416       C  0.39036098  0.79889524  0.95935242     0.37100
N1417       N  0.37097065  0.82931522  0.95773400    -0.89500
H1418       H  0.42742216  0.82021800  0.98221820     0.18200
H1419       H  0.39153401  0.71704418  0.94157574     0.18200
N1420       N  0.44414889  0.70722068  0.96776307    -0.88600
H1421       H  0.38165284  0.84821482  0.96782181     0.35500
H1422       H  0.34695923  0.82434676  0.96448555     0.40600
H1423       H  0.44437545  0.70115875  0.98506398     0.40300
H1424       H  0.46918346  0.71011480  0.96230570     0.35100
C1425       C  0.32197295  0.97283607  0.28188308    -0.26600
C1426       C  0.30093423  0.00099297  0.28416580    -0.14700
C1427       C  0.30881727  0.52368238  0.30216730     0.36000
C1428       C  0.33462369  0.01933789  0.31647414    -0.26000
C1429       C  0.35712556  0.99244155  0.31344578    -0.15300
C1430       C  0.35002262  0.96831193  0.29635400     0.37100
N1431       N  0.37174404  0.94009786  0.29250633    -0.89500
H1432       H  0.31767845  0.95531915  0.26805892     0.18200
H1433       H  0.34307536  0.53868967  0.32848702     0.18200
N1434       N  0.28812043  0.55296361  0.30486416    -0.88600
H1435       H  0.37203284  0.92527590  0.30719294     0.35500
H1436       H  0.39630028  0.94894441  0.28944567     0.40600
H1437       H  0.30339114  0.57415544  0.30235082     0.40300
H1438       H  0.27926773  0.55345814  0.32162198     0.35100
C1439       C  0.12328155  0.50496245  0.28896381    -0.26600
C1440       C  0.13032752  0.99238266  0.30781890    -0.14700
C1441       C  0.16307098  0.98113964  0.31350641     0.36000
C1442       C  0.19000417  0.98714561  0.29839560    -0.26000
C1443       C  0.18480814  0.00440618  0.27783712    -0.15300
C1444       C  0.14978812  0.51055279  0.27342951     0.37100
N1445       N  0.14272504  0.52677899  0.25207160    -0.89500
H1446       H  0.09806786  0.51425250  0.28519750     0.18200
H1447       H  0.21535944  0.97941255  0.30313120     0.18200
N1448       N  0.16903052  0.96476219  0.33495660    -0.88600
H1449       H  0.11708592  0.53315858  0.25081021     0.35500
H1450       H  0.14755766  0.50940157  0.23915198     0.40600
H1451       H  0.16409195  0.98219992  0.34782672     0.40300
H1452       H  0.19455026  0.95810493  0.33657241     0.35100
C1453       C  0.27365075  0.59922532  0.22645641    -0.26600
C1454       C  0.24834908  0.57428028  0.22403744    -0.14700
C1455       C  0.22318030  0.57916662  0.20712946     0.36000
C1456       C  0.22487804  0.60695667  0.19251304    -0.26000
C1457       C  0.25122091  0.63049197  0.19421378    -0.15300
C1458       C  0.27530512  0.62713379  0.21177535     0.37100
N1459       N  0.30116753  0.65225492  0.21485010    -0.89500
H1460       H  0.29246950  0.59771102  0.23965050     0.18200
H1461       H  0.20585175  0.60955588  0.17930649     0.18200
N1462       N  0.19604649  0.55547788  0.20441113    -0.88600
H1463       H  0.31708308  0.64603739  0.22845302     0.35500
H1464       H  0.28913537  0.67470272  0.21926555     0.40600
H1465       H  0.19695300  0.54606038  0.18781818     0.40300
H1466       H  0.17311652  0.56826951  0.20639465     0.35100
C1467       C  0.22464819  0.92598030  0.22649543    -0.26600
C1468       C  0.24918115  0.95065234  0.22197246    -0.14700
C1469       C  0.27402433  0.94437530  0.20533250     0.36000
C1470       C  0.27227606  0.91508261  0.19221455    -0.26000
C1471       C  0.24619836  0.89143609  0.19539203    -0.15300
C1472       C  0.22292675  0.89644247  0.21345341     0.37100
N1473       N  0.19800892  0.87178264  0.21944643    -0.89500
H1474       H  0.20603150  0.93015460  0.23973913     0.18200
H1475       H  0.29112636  0.91129976  0.17906845     0.18200
N1476       N  0.30132325  0.96763179  0.20184413    -0.88600
H1477       H  0.21013001  0.84869597  0.22179864     0.35500
H1478       H  0.18044685  0.86966694  0.20626129     0.40600
H1479       H  0.30075934  0.97544828  0.18485446     0.40300
H1480       H  0.32413007  0.95491602  0.20461439     0.35100
C1481       C  0.75089254  0.04230958  0.23758743     0.86200
C1482       C  0.71792575  0.03769866  0.25124066    -0.54000
C1483       C  0.71532188  0.50836611  0.26376932     0.09100
C1484       C  0.74740411  0.48679720  0.26117223     0.20100
C1485       C  0.77883437  0.03799432  0.25564855    -0.54700
C1486       C  0.77654491  0.51050984  0.26776124     0.09200
C1487       C  0.75373677  0.01074603  0.22279721    -0.54300
C1488       C  0.75131105  0.48157134  0.23541209     0.09800
H1489       H  0.69889116  0.05727225  0.25207169     0.14300
H1490       H  0.74691455  0.46301665  0.27107939     0.00100
H1491       H  0.79858193  0.05604070  0.25937960     0.14600
H1492       H  0.75423101  0.51133026  0.20483365     0.14400
C1493       C  0.97047257  0.26698473  0.01352307     0.02000
C1494       C  0.96977633  0.26402733  0.98952071     0.02000
C1495       C  0.50176636  0.27056676  0.97747525    -0.18500
C1496       C  0.53249390  0.26898619  0.98937962     0.02000
C1497       C  0.53235522  0.26897433  0.01333942     0.02000
C1498       C  0.50138185  0.27056895  0.02495559    -0.18500
H1499       H  0.50123858  0.27028782  0.04341205     0.04000
H1500       H  0.50197923  0.27047915  0.95901725     0.04000
C1501       C  0.74698701  0.04155811  0.76580421     0.86200
C1502       C  0.77693117  0.03853565  0.74932516    -0.54000
C1503       C  0.77704392  0.51082038  0.73633863     0.09100
C1504       C  0.74810026  0.48629908  0.74246488     0.20100
C1505       C  0.71553820  0.03710522  0.75045445    -0.54700
C1506       C  0.71547297  0.50724248  0.74025738     0.09200
C1507       C  0.75222798  0.50902146  0.78079491    -0.54300
C1508       C  0.75232320  0.48027507  0.76817384     0.09800
H1509       H  0.79656172  0.05762982  0.74800799     0.14300
H1510       H  0.74771815  0.46295741  0.73212961     0.00100
H1511       H  0.69486660  0.05471903  0.74877060     0.14600
H1512       H  0.75455923  0.50881919  0.79922385     0.14400
C1513       C  0.49939616  0.20318234  0.73520837     0.86200
C1514       C  0.53034638  0.20694316  0.75104233    -0.54000
C1515       C  0.53036404  0.23532820  0.76410303     0.09100
C1516       C  0.49950728  0.25830426  0.75965581     0.20100
C1517       C  0.97259818  0.20948463  0.75408954    -0.54700
C1518       C  0.97199695  0.23889128  0.76619488     0.09200
C1519       C  0.49973910  0.23565508  0.72120778    -0.54300
C1520       C  0.49911513  0.26443636  0.73377061     0.09800
H1521       H  0.55105391  0.18933438  0.75225826     0.14300
H1522       H  0.49971620  0.28201552  0.76951538     0.00100
H1523       H  0.95317003  0.19029614  0.75592462     0.14600
H1524       H  0.49999879  0.23580625  0.70271969     0.14400
C1525       C  0.74825000  0.47819207  0.01318850     0.02000
C1526       C  0.74903391  0.47890302  0.98912797     0.02000
C1527       C  0.75234743  0.01119933  0.97821741    -0.18500
C1528       C  0.75164700  0.04178932  0.99012435     0.02000
C1529       C  0.75261554  0.04106561  0.01422487     0.02000
C1530       C  0.75205941  0.00997085  0.02556015    -0.18500
H1531       H  0.75196180  0.00944372  0.04401704     0.04000
H1532       H  0.75289904  0.01150887  0.95976888     0.04000
C1533       C  0.85143797  0.26553723  0.93179259     0.42200
N1534       N  0.82096013  0.24917477  0.90358894     0.01100
C1535       C  0.71926982  0.34540007  0.83298684    -0.06800
H1536       H  0.68946855  0.35313714  0.91916724     0.06600
C1537       C  0.66314324  0.22963137  0.92001975    -0.07200
Co1538     Co  0.79228955  0.30633305  0.87698063     0.74200
N1539       N  0.72914358  0.32961023  0.90019633    -0.26300
Co1540     Co  0.70409294  0.30070334  0.87576144     0.74100
C1541       C  0.64839211  0.25999782  0.92997666     0.42300
N1542       N  0.73822659  0.19106808  0.90401709     0.00700
N1543       N  0.67950971  0.27364598  0.90138417     0.00800
N1544       N  0.77641477  0.34860413  0.83485305    -0.47200
H1545       H  0.84178171  0.32138161  0.92303761     0.06600
N1546       N  0.76248289  0.33171697  0.90088063     0.01100
N1547       N  0.67913855  0.27056241  0.85162764     0.00800
C1548       C  0.64381589  0.25171073  0.82663596     0.42400
N1549       N  0.77157029  0.19305268  0.90404237    -0.25800
C1550       C  0.84360420  0.29125876  0.83730817    -0.06700
N1551       N  0.84031524  0.23820763  0.92039771    -0.46900
N1552       N  0.65637491  0.28013113  0.83622078    -0.47100
C1553       C  0.85886546  0.26098893  0.82764976     0.42200
N1554       N  0.76412475  0.32887965  0.85100714     0.01100
N1555       N  0.77252397  0.19099883  0.85455777    -0.25800
N1556       N  0.81901351  0.28223338  0.90288872    -0.26300
N1557       N  0.73910510  0.18902665  0.85424551     0.00700
H1558       H  0.81156912  0.16728139  0.83456234     0.06600
H1559       H  0.65656521  0.19684258  0.83597090     0.06600
N1560       N  0.73069240  0.32676694  0.85045095    -0.26300
N1561       N  0.68191055  0.24063315  0.90249435    -0.26000
N1562       N  0.82349746  0.24683245  0.85382203     0.01100
C1563       C  0.74566131  0.36405532  0.92807732     0.42500
C1564       C  0.78364359  0.17395396  0.92100542    -0.07200
N1565       N  0.68170379  0.23757890  0.85304635    -0.26000
H1566       H  0.65974061  0.20358275  0.92474979     0.06600
N1567       N  0.77335001  0.35230791  0.91706046    -0.47200
H1568       H  0.81019957  0.16916800  0.92402554     0.06600
C1569       C  0.75511328  0.15685508  0.82709804     0.42300
C1570       C  0.83754020  0.29492326  0.92000875    -0.06700
Co1571     Co  0.79762678  0.21959303  0.87895583     0.73800
N1572       N  0.72647706  0.17092700  0.92015818    -0.46900
C1573       C  0.74978724  0.35974121  0.82251037     0.42600
N1574       N  0.84544755  0.23451674  0.83891640    -0.46900
Co1575     Co  0.70989360  0.21406132  0.87844953     0.73900
C1576       C  0.66077382  0.22355189  0.83784658    -0.07200
C1577       C  0.71621215  0.34915802  0.91660176    -0.06800
N1578       N  0.82192375  0.27997543  0.85328649    -0.26300
N1579       N  0.65957698  0.28615446  0.91735275    -0.47100
H1580       H  0.69285973  0.34979769  0.82906747     0.06600
C1581       C  0.78498466  0.17132104  0.83808795    -0.07200
Cl1582     Cl  0.75097057  0.26018110  0.87741954    -0.50200
C1583       C  0.75359672  0.15967568  0.93199953     0.42300
H1584       H  0.84891349  0.31734654  0.83353537     0.06500
N1585       N  0.72765594  0.16870619  0.83815932    -0.46900
C1586       C  0.74718544  0.35966305  0.18212105     0.42200
N1587       N  0.76246040  0.32928138  0.15359693     0.01100
C1588       C  0.66404475  0.23096968  0.08229907    -0.06800
H1589       H  0.65491512  0.19660289  0.16437783     0.06600
C1590       C  0.78527000  0.17211060  0.16422503    -0.07200
Co1591     Co  0.70362653  0.30179931  0.12719254     0.74200
N1592       N  0.68111971  0.23782297  0.14879442    -0.26300
Co1593     Co  0.71036628  0.21513155  0.12373374     0.74100
C1594       C  0.75545666  0.15686942  0.17488712     0.42300
N1595       N  0.82279251  0.24778976  0.14946956     0.00700
N1596       N  0.73937558  0.18960039  0.14789841     0.00800
N1597       N  0.65975272  0.28751004  0.08498996    -0.47200
H1598       H  0.69047840  0.35054710  0.17380533     0.06600
N1599       N  0.67821390  0.27076079  0.15032258     0.01100
N1600       N  0.73919889  0.19275096  0.09831314     0.00800
C1601       C  0.75486752  0.15966369  0.07141994     0.42400
N1602       N  0.82010458  0.28073349  0.15126698    -0.25800
C1603       C  0.71677347  0.35092676  0.08686310    -0.06700
N1604       N  0.77415991  0.34859188  0.17015508    -0.46900
N1605       N  0.72768220  0.17158807  0.08273258    -0.47100
C1606       C  0.74651544  0.36613652  0.07607300     0.42200
N1607       N  0.68003597  0.27513063  0.10090302     0.01100
N1608       N  0.81944342  0.28567618  0.10182848    -0.25800
N1609       N  0.72904991  0.32732515  0.15341464    -0.26300
N1610       N  0.82177923  0.25271279  0.10004318     0.00700
H1611       H  0.84240533  0.32673883  0.08369901     0.06600
H1612       H  0.81136471  0.17062139  0.07867905     0.06600
N1613       N  0.68276714  0.24211885  0.09974212    -0.26300
N1614       N  0.77277066  0.19192569  0.14777806    -0.26000
N1615       N  0.76251823  0.33435699  0.10373501     0.01100
C1616       C  0.64026045  0.25128865  0.17308532     0.42500
C1617       C  0.84033288  0.29114393  0.16829740    -0.07200
N1618       N  0.77252881  0.19511440  0.09832802    -0.26000
H1619       H  0.81190208  0.16810842  0.16761454     0.06600
N1620       N  0.65389994  0.27989885  0.16459353    -0.47200
H1621       H  0.84479227  0.31698503  0.17314737     0.06600
C1622       C  0.85476111  0.27185137  0.07394461     0.42300
C1623       C  0.71702161  0.34579716  0.17075066    -0.06700
Co1624     Co  0.79148100  0.30810543  0.12768641     0.73800
N1625       N  0.84460198  0.23479263  0.16416666    -0.46900
C1626       C  0.64896256  0.26113526  0.07241907     0.42600
N1627       N  0.77392673  0.35482349  0.08761718    -0.46900
Co1628     Co  0.79795974  0.22151156  0.12379256     0.73900
C1629       C  0.78478293  0.17519645  0.08189036    -0.07200
C1630       C  0.65873960  0.22335416  0.16283970    -0.06800
N1631       N  0.72919141  0.33174978  0.10366791    -0.26300
N1632       N  0.72801014  0.16860087  0.16363944    -0.47100
H1633       H  0.66071267  0.20490240  0.07760584     0.06600
C1634       C  0.83905056  0.29998463  0.08593439    -0.07200
Cl1635     Cl  0.75084260  0.26163489  0.12565614    -0.50200
C1636       C  0.85622539  0.26051068  0.17688451     0.42300
H1637       H  0.69018803  0.35374671  0.08280605     0.06500
N1638       N  0.84278435  0.24338441  0.08367537    -0.46900
C1639       C  0.60351503  0.49294416  0.67753459     0.42200
N1640       N  0.56899126  0.47491176  0.65204245     0.01100
C1641       C  0.96746445  0.07093490  0.58174911    -0.06800
H1642       H  0.94064330  0.08048465  0.66808565     0.06600
C1643       C  0.90435761  0.45968466  0.66523173    -0.07200
Co1644     Co  0.54218317  0.03137891  0.62112003     0.74200
N1645       N  0.97940009  0.05604628  0.64827748    -0.26300
Co1646     Co  0.95355925  0.02678845  0.62441568     0.74100
C1647       C  0.88853508  0.49088380  0.67328922     0.42300
N1648       N  0.98430430  0.41954016  0.65239591     0.00700
N1649       N  0.92834629  0.00119428  0.65018791     0.00800
N1650       N  0.52620367  0.07460419  0.57925206    -0.47200
H1651       H  0.59483965  0.04850226  0.66500799     0.06600
N1652       N  0.51249073  0.05755640  0.64462436     0.01100
N1653       N  0.92840407  0.99640083  0.60069397     0.00800
C1654       C  0.89572987  0.48099205  0.57144064     0.42400
N1655       N  0.51745385  0.41978723  0.65424859    -0.25800
C1656       C  0.58861685  0.01407186  0.57984320    -0.06700
N1657       N  0.59084918  0.46486350  0.66782074    -0.46900
N1658       N  0.90744001  0.00650706  0.58440721    -0.47100
C1659       C  0.60210200  0.48437325  0.57458865     0.42200
N1660       N  0.51446431  0.05377883  0.59497452     0.01100
N1661       N  0.51882149  0.41448099  0.60448363    -0.25800
N1662       N  0.56954757  0.00822996  0.64712238    -0.26300
N1663       N  0.98528720  0.41459806  0.60256272     0.00700
H1664       H  0.55800813  0.39083673  0.58464648     0.06600
H1665       H  0.90544607  0.42538490  0.58090731     0.06600
N1666       N  0.97956212  0.05197075  0.59876743    -0.26300
N1667       N  0.92694135  0.46951804  0.64936665    -0.26000
N1668       N  0.56952706  0.47047061  0.60239917     0.01100
C1669       C  0.99718081  0.09079024  0.67541045     0.42500
C1670       C  0.52899960  0.40197585  0.67202803    -0.07200
N1671       N  0.92916727  0.46507526  0.60001296    -0.26000
H1672       H  0.89803509  0.43391457  0.66929569     0.06600
N1673       N  0.52327091  0.07859056  0.66053583    -0.47200
H1674       H  0.55543634  0.39712257  0.67550974     0.06600
C1675       C  0.00249741  0.38020359  0.57662806     0.42300
C1676       C  0.58983495  0.02195313  0.66291792    -0.06700
Co1677     Co  0.54418979  0.44431935  0.62832451     0.73800
N1678       N  0.97272911  0.39978617  0.66881952    -0.46900
C1679       C  0.99748743  0.08526254  0.57067742     0.42600
N1680       N  0.59044973  0.45800087  0.58693440    -0.46900
Co1681     Co  0.95593147  0.44152107  0.62615999     0.73900
C1682       C  0.90985898  0.45192615  0.58348573    -0.07200
C1683       C  0.96719377  0.07624796  0.66455360    -0.06800
N1684       N  0.57009715  0.00373712  0.59763198    -0.26300
N1685       N  0.90651957  0.01490562  0.66440805    -0.47100
H1686       H  0.94089745  0.07585462  0.57897975     0.06600
C1687       C  0.53136595  0.39463421  0.58805829    -0.07200
Cl1688     Cl  0.99758575  0.48749975  0.62458442    -0.50200
C1689       C  0.99996098  0.38879339  0.68073036     0.42300
H1690       H  0.59243455  0.04000831  0.57502343     0.06500
N1691       N  0.97457735  0.39268069  0.58711422    -0.46900
C1692       C  0.00048165  0.08910286  0.32473582     0.42200
N1693       N  0.98583914  0.05868461  0.35326073     0.01100
C1694       C  0.58671668  0.45218121  0.41841766    -0.06800
H1695       H  0.59640492  0.42848969  0.33277319     0.06600
C1696       C  0.96312401  0.40072709  0.33602063    -0.07200
Co1697     Co  0.54474880  0.02505635  0.37552393     0.74200
N1698       N  0.56936124  0.46611601  0.35202942    -0.26300
Co1699     Co  0.54101094  0.44000392  0.37611055     0.74100
C1700       C  0.99326901  0.38642805  0.32507082     0.42300
N1701       N  0.92476767  0.47656622  0.35441403     0.00700
N1702       N  0.51233876  0.41708712  0.35079049     0.00800
N1703       N  0.58984084  0.00646198  0.41628390    -0.47200
H1704       H  0.55769967  0.07700492  0.33133378     0.06600
N1705       N  0.56823793  0.99671053  0.35018194     0.01100
N1706       N  0.51272367  0.41465575  0.40055498     0.00800
C1707       C  0.99332008  0.38279171  0.42954313     0.42400
N1708       N  0.92898413  0.00932973  0.35390975    -0.25800
C1709       C  0.53421267  0.07345189  0.41669351    -0.06700
N1710       N  0.97359129  0.07811794  0.33691732    -0.46900
N1711       N  0.52504442  0.39486400  0.41665315    -0.47100
C1712       C  0.00534924  0.08985605  0.43037302     0.42200
N1713       N  0.56916108  0.99560450  0.40009843     0.01100
N1714       N  0.93201398  0.00688882  0.40306981    -0.25800
N1715       N  0.51885890  0.05331686  0.35112724    -0.26300
N1716       N  0.92738463  0.47570212  0.40380871     0.00700
H1717       H  0.90962454  0.04433070  0.42473794     0.06600
H1718       H  0.93693953  0.39399227  0.42240166     0.06600
N1719       N  0.56811992  0.46464442  0.40131981    -0.26300
N1720       N  0.97528782  0.42001677  0.35294307    -0.26000
N1721       N  0.98802380  0.05755970  0.40322712     0.01100
C1722       C  0.60537094  0.48480341  0.32607179     0.42500
C1723       C  0.90656292  0.02239282  0.33926385    -0.07200
N1724       N  0.97592115  0.41839403  0.40260639    -0.26000
H1725       H  0.93656081  0.39598436  0.33285506     0.06600
N1726       N  0.58899235  0.00853422  0.33435729    -0.47200
H1727       H  0.90103486  0.04885511  0.33735284     0.06600
C1728       C  0.89588862  0.49126810  0.43155605     0.42300
C1729       C  0.53107641  0.07284757  0.33444122    -0.06700
Co1730     Co  0.95830163  0.03371356  0.37840579     0.73800
N1731       N  0.90077414  0.46605780  0.34025828    -0.46900
C1732       C  0.60045677  0.48171439  0.42994993     0.42600
N1733       N  0.97743774  0.07799176  0.41950911    -0.46900
Co1734     Co  0.95031976  0.44721716  0.37837408     0.73900
C1735       C  0.96353837  0.39813840  0.41890469    -0.07200
C1736       C  0.59078740  0.45460126  0.33613804    -0.06800
N1737       N  0.52077942  0.05328395  0.40072613    -0.26300
N1738       N  0.52425264  0.39824724  0.33413013    -0.47100
H1739       H  0.59094525  0.42578467  0.42166778     0.06600
C1740       C  0.91342746  0.01818742  0.42046117    -0.07200
Cl1741     Cl  0.99728186  0.48779040  0.37819270    -0.50200
C1742       C  0.88727214  0.49383759  0.33062637     0.42300
H1743       H  0.56102472  0.07790969  0.41878435     0.06500
N1744       N  0.90697832  0.46423227  0.41989686    -0.46900
C1745       C  0.99871697  0.26696186  0.51449080     0.02000
C1746       C  0.99686404  0.26744851  0.49044029     0.02000
C1747       C  0.50102248  0.23851116  0.47683411    -0.18500
C1748       C  0.99981387  0.20582417  0.49004952     0.02000
C1749       C  0.00136295  0.20526166  0.51412186     0.02000
C1750       C  0.00082618  0.23598762  0.52596495    -0.18500
H1751       H  0.00150518  0.23585482  0.54441332     0.04000
H1752       H  0.50070182  0.23983351  0.45840157     0.04000
C1753       C  0.77807420  0.48543913  0.48918407     0.02000
C1754       C  0.77846188  0.48218918  0.51299979     0.02000
C1755       C  0.74786134  0.48008971  0.52494987    -0.18500
C1756       C  0.71666329  0.48049364  0.51347110     0.02000
C1757       C  0.71631021  0.48371972  0.48950994     0.02000
C1758       C  0.74708728  0.48584265  0.47766747    -0.18500
H1759       H  0.74696395  0.48759606  0.45924355     0.04000
H1760       H  0.74834530  0.47810443  0.54335800     0.04000
C1761       C  0.49855897  0.20625638  0.26372503     0.86200
C1762       C  0.96811348  0.21143884  0.25063337    -0.54000
C1763       C  0.96739798  0.24113914  0.23912540     0.09100
C1764       C  0.49710685  0.26342756  0.24143612     0.20100
C1765       C  0.52722465  0.21059322  0.24600075    -0.54700
C1766       C  0.52661103  0.24044753  0.23450769     0.09200
C1767       C  0.00201230  0.23749212  0.28043480    -0.54300
C1768       C  0.50116872  0.26729613  0.26733494     0.09800
H1769       H  0.94796679  0.19287456  0.24930040     0.14300
H1770       H  0.49636232  0.28756357  0.23192684     0.00100
H1771       H  0.54704982  0.19260919  0.24257818     0.14600
H1772       H  0.00330317  0.23597245  0.29887006     0.14400
C1773       C  0.52605647  0.33544406  0.30903405    -0.26600
C1774       C  0.99552564  0.35746322  0.30930600    -0.14700
C1775       C  0.97430703  0.35337667  0.29005306     0.36000
C1776       C  0.97780311  0.32477252  0.27628423    -0.26000
C1777       C  0.00185346  0.29994423  0.28142532    -0.15300
C1778       C  0.52805958  0.30616823  0.29589402     0.37100
N1779       N  0.55489454  0.28239524  0.29977285    -0.89500
H1780       H  0.54471685  0.33956641  0.32229304     0.18200
H1781       H  0.96090654  0.32145445  0.26191917     0.18200
N1782       N  0.94968340  0.37805514  0.28369519    -0.88600
H1783       H  0.57088718  0.29058127  0.31285329     0.35500
H1784       H  0.56969443  0.28138484  0.28506381     0.40600
H1785       H  0.96179911  0.40136051  0.28230964     0.40300
H1786       H  0.93123256  0.37940379  0.29635317     0.35100
C1787       C  0.97459509  0.14161685  0.31066634    -0.26600
C1788       C  0.99880361  0.11633566  0.30769047    -0.14700
C1789       C  0.52315326  0.11963324  0.28901694     0.36000
C1790       C  0.52164625  0.14762592  0.27458041    -0.26000
C1791       C  0.99829161  0.17360912  0.27895319    -0.15300
C1792       C  0.97387974  0.16985238  0.29644773     0.37100
N1793       N  0.94852961  0.19501699  0.30011376    -0.89500
H1794       H  0.95662318  0.14003443  0.32456786     0.18200
H1795       H  0.53979371  0.14837376  0.26094819     0.18200
N1796       N  0.54795505  0.09445568  0.28406101    -0.88600
H1797       H  0.95092358  0.20379458  0.31680640     0.35500
H1798       H  0.92471631  0.18367543  0.29848762     0.40600
H1799       H  0.53609247  0.07095713  0.28344005     0.40300
H1800       H  0.56643946  0.09458932  0.29674228     0.35100
C1801       C  0.97618350  0.13949573  0.44645485    -0.26600
C1802       C  0.00461977  0.11826901  0.44686622    -0.14700
C1803       C  0.52938085  0.12301399  0.46149564     0.36000
C1804       C  0.52810130  0.15168679  0.47544656    -0.26000
C1805       C  0.00041605  0.17469070  0.47609795    -0.15300
C1806       C  0.97377747  0.16747502  0.46086822     0.37100
N1807       N  0.94435806  0.18872982  0.46010619    -0.89500
H1808       H  0.95578463  0.13459460  0.43454460     0.18200
H1809       H  0.54763910  0.15527174  0.48819595     0.18200
N1810       N  0.55508433  0.09861761  0.46618722    -0.88600
H1811       H  0.93222960  0.18692193  0.47587164     0.35500
H1812       H  0.92707794  0.18011223  0.44792212     0.40600
H1813       H  0.57210840  0.09799205  0.45265453     0.40300
H1814       H  0.54364528  0.07505993  0.46811078     0.35100
C1815       C  0.96612546  0.33256104  0.44754742    -0.26600
C1816       C  0.99388710  0.35475874  0.44647799    -0.14700
C1817       C  0.53113751  0.33882885  0.45160440     0.36000
C1818       C  0.53061441  0.31138557  0.46648966    -0.26000
C1819       C  0.99412944  0.29904373  0.47684473    -0.15300
C1820       C  0.96613149  0.30460987  0.46230377     0.37100
N1821       N  0.93834651  0.28113911  0.46198937    -0.89500
H1822       H  0.94474925  0.33628065  0.43625033     0.18200
H1823       H  0.55388491  0.29771120  0.46969625     0.18200
N1824       N  0.56316306  0.34799993  0.44194160    -0.88600
H1825       H  0.92007443  0.28842884  0.45007169     0.35500
H1826       H  0.92660895  0.28184540  0.47789268     0.40600
H1827       H  0.56837373  0.37303275  0.44603763     0.40300
H1828       H  0.56200915  0.34507396  0.42429162     0.35100
C1829       C  0.64970138  0.51051816  0.44703890    -0.26600
C1830       C  0.62769671  0.48280187  0.44715963    -0.14700
C1831       C  0.63320114  0.45637042  0.46282951     0.36000
C1832       C  0.66183190  0.45746664  0.47709911    -0.26000
C1833       C  0.68453606  0.48461136  0.47614782    -0.15300
C1834       C  0.67804105  0.51154081  0.46126291     0.37100
N1835       N  0.70450461  0.03390257  0.45643799    -0.89500
H1836       H  0.64872251  0.02659993  0.43181280     0.18200
H1837       H  0.66691470  0.43677995  0.48860703     0.18200
N1838       N  0.60991899  0.42861624  0.46419927    -0.88600
H1839       H  0.68652947  0.56144690  0.46399287     0.35500
H1840       H  0.70972580  0.54194990  0.44373620     0.40600
H1841       H  0.58661406  0.43805950  0.46969951     0.40300
H1842       H  0.61782804  0.41132053  0.47650881     0.35100
C1843       C  0.84877326  0.01408499  0.44915539    -0.26600
C1844       C  0.86753919  0.49036356  0.44793684    -0.14700
C1845       C  0.85966966  0.46084833  0.46017734     0.36000
C1846       C  0.83074164  0.45987015  0.47396761    -0.26000
C1847       C  0.80960761  0.48794153  0.47582430    -0.15300
C1848       C  0.81995935  0.01264246  0.46308102     0.37100
N1849       N  0.79689984  0.04054736  0.46404943    -0.89500
H1850       H  0.85313558  0.03633689  0.43895327     0.18200
H1851       H  0.82437807  0.43687807  0.48287703     0.18200
N1852       N  0.88096525  0.43182697  0.45868971    -0.88600
H1853       H  0.80519574  0.06011756  0.45354279     0.35500
H1854       H  0.79724336  0.04977688  0.48069868     0.40600
H1855       H  0.86626415  0.41175164  0.45277840     0.40300
H1856       H  0.88936920  0.42589132  0.47508992     0.35100
C1857       C  0.65031648  0.45398762  0.55684156    -0.26600
C1858       C  0.62929048  0.48238767  0.55721029    -0.14700
C1859       C  0.63585406  0.00558923  0.53638615     0.36000
C1860       C  0.66445262  0.00309309  0.52235592    -0.26000
C1861       C  0.68514536  0.47907997  0.52717942    -0.15300
C1862       C  0.67778022  0.45169786  0.54181809     0.37100
N1863       N  0.69746310  0.42128305  0.54196785    -0.89500
H1864       H  0.64567513  0.43339025  0.56851477     0.18200
H1865       H  0.67077257  0.02381290  0.51113382     0.18200
N1866       N  0.61416219  0.03423510  0.53438741    -0.88600
H1867       H  0.68106119  0.40146251  0.53798124     0.35500
H1868       H  0.71576170  0.42129049  0.52917413     0.40600
H1869       H  0.60522914  0.03533486  0.51764007     0.40300
H1870       H  0.62868726  0.05579054  0.53739241     0.35100
C1871       C  0.85193389  0.45092268  0.54862828    -0.26600
C1872       C  0.86801410  0.48127913  0.55438128    -0.14700
C1873       C  0.85625953  0.00739893  0.54558623     0.36000
C1874       C  0.82871545  0.00606786  0.53035478    -0.26000
C1875       C  0.81047130  0.48086721  0.52589514    -0.15300
C1876       C  0.82334742  0.45029007  0.53453419     0.37100
N1877       N  0.80784887  0.41828356  0.52976879    -0.89500
H1878       H  0.86091285  0.42736109  0.55554016     0.18200
H1879       H  0.82061285  0.02887276  0.52185896     0.18200
N1880       N  0.87345907  0.03868581  0.54914456    -0.88600
H1881       H  0.82567280  0.40372199  0.52109340     0.35500
H1882       H  0.78703483  0.42054066  0.51890763     0.40600
H1883       H  0.85576087  0.05619935  0.55496287     0.40300
H1884       H  0.88266053  0.04705709  0.53344671     0.35100
C1885       C  0.52825152  0.13747323  0.55365407    -0.26600
C1886       C  0.99895274  0.11431272  0.55471028    -0.14700
C1887       C  0.97496293  0.11954418  0.53705650     0.36000
C1888       C  0.97650171  0.14890604  0.52386867    -0.26000
C1889       C  0.00186864  0.17319339  0.52739574    -0.15300
C1890       C  0.53054061  0.16652594  0.54016850     0.37100
N1891       N  0.55896494  0.18896100  0.54249360    -0.89500
H1892       H  0.54799039  0.13249502  0.56603618     0.17800
H1893       H  0.95725912  0.15303814  0.51100575     0.18200
N1894       N  0.94940267  0.09528136  0.53151895    -0.88600
H1895       H  0.57215577  0.18882004  0.52707180     0.35500
H1896       H  0.57577398  0.18020506  0.55491865     0.40600
H1897       H  0.93169287  0.09421232  0.54463130     0.40300
H1898       H  0.96083487  0.07179234  0.52952021     0.35100
C1899       C  0.52571535  0.32158620  0.52769095    -0.26600
C1900       C  0.99887972  0.29803659  0.52838313    -0.14700
C1901       C  0.96896790  0.31090407  0.53815284     0.36000
C1902       C  0.97078386  0.33795755  0.55337801    -0.26000
C1903       C  0.00204189  0.35273941  0.55927441    -0.15300
C1904       C  0.52658791  0.34880881  0.54302389     0.37100
N1905       N  0.55355230  0.37284825  0.54154525    -0.89500
H1906       H  0.54630296  0.31848256  0.51569607     0.18200
H1907       H  0.94750407  0.34707989  0.56091142     0.18200
N1908       N  0.93647840  0.29660406  0.53316002    -0.88600
H1909       H  0.55324183  0.38323864  0.52519300     0.35500
H1910       H  0.57650529  0.36010944  0.54362725     0.40600
H1911       H  0.93688960  0.27117348  0.53762038     0.40300
H1912       H  0.93243310  0.29843880  0.51564708     0.35100
C1913       C  0.55481048  0.22600084  0.19841853    -0.26600
C1914       C  0.55243499  0.24822309  0.21683105    -0.14700
C1915       C  0.57755009  0.27357353  0.21937615     0.36000
C1916       C  0.60542001  0.27409729  0.20453654    -0.26000
C1917       C  0.60912124  0.25012171  0.18725286    -0.15300
C1918       C  0.58259402  0.22658734  0.18368005     0.37100
N1919       N  0.58253673  0.20329037  0.16513720    -0.89500
H1920       H  0.53539199  0.20699456  0.19599919     0.18200
H1921       H  0.62502273  0.29287747  0.20705625     0.18200
N1922       N  0.57683999  0.29815327  0.23723913    -0.88600
H1923       H  0.60120147  0.18525187  0.16790804     0.35500
H1924       H  0.58733458  0.21628131  0.15000261     0.40600
H1925       H  0.55505557  0.29597551  0.24699813     0.40300
H1926       H  0.57566461  0.32185876  0.22959488     0.35100
C1927       C  0.94452495  0.24468117  0.19997514    -0.26600
C1928       C  0.93941920  0.24928803  0.22334228    -0.14700
C1929       C  0.90691699  0.25823205  0.23137528     0.36000
C1930       C  0.88039643  0.26320078  0.21585389    -0.26000
C1931       C  0.88532697  0.25790224  0.19252717    -0.15300
C1932       C  0.91759254  0.24839748  0.18446631     0.37100
N1933       N  0.92268650  0.24209394  0.16063244    -0.89500
H1934       H  0.96931067  0.23708259  0.19394059     0.18200
H1935       H  0.85549448  0.26998454  0.22210530     0.18200
N1936       N  0.90006850  0.26181636  0.25518443    -0.88600
H1937       H  0.94773743  0.23487618  0.15754719     0.35500
H1938       H  0.91895866  0.26475213  0.15197139     0.40600
H1939       H  0.91660331  0.27983998  0.26183680     0.40300
H1940       H  0.90495800  0.23890651  0.26323955     0.35100
C1941       C  0.72557510  0.09367033  0.02846532    -0.26600
C1942       C  0.75355971  0.07206623  0.02819782    -0.14700
C1943       C  0.78209684  0.07972178  0.04162714     0.36000
C1944       C  0.78218809  0.10864692  0.05523347    -0.26000
C1945       C  0.75397903  0.13014930  0.05594278    -0.15300
C1946       C  0.72534345  0.12239499  0.04224637     0.37100
N1947       N  0.69586208  0.14332619  0.04166219    -0.89500
H1948       H  0.70356667  0.08789679  0.01810697     0.18200
H1949       H  0.80430173  0.11381575  0.06559855     0.18200
N1950       N  0.81124379  0.05831883  0.04121520    -0.88600
H1951       H  0.70330661  0.16782027  0.03755391     0.35500
H1952       H  0.68455786  0.14321941  0.05772338     0.40600
H1953       H  0.81584969  0.05000225  0.05781566     0.40300
H1954       H  0.83206301  0.07269259  0.03600906     0.35100
C1955       C  0.71688239  0.40961079  0.05287535    -0.26600
C1956       C  0.74697669  0.39227056  0.05787200    -0.14700
C1957       C  0.77691876  0.40103889  0.04597134     0.36000
C1958       C  0.77642609  0.42827385  0.03056051    -0.26000
C1959       C  0.74658299  0.44649617  0.02653525    -0.15300
C1960       C  0.71621422  0.43636285  0.03738785     0.37100
N1961       N  0.68433776  0.45297914  0.03351141    -0.89500
H1962       H  0.69356538  0.40310961  0.06152210     0.18200
H1963       H  0.79959351  0.43594486  0.02210838     0.18200
N1964       N  0.80774981  0.38262921  0.04971986    -0.88600
H1965       H  0.66756390  0.43521401  0.02674658     0.35500
H1966       H  0.68634561  0.47193929  0.02131176     0.40600
H1967       H  0.82745227  0.39253386  0.03987385     0.40300
H1968       H  0.80373915  0.35807996  0.04397019     0.35100
C1969       C  0.72763126  0.10621180  0.94495521    -0.26600
C1970       C  0.75220713  0.13127373  0.94834909    -0.14700
C1971       C  0.77474861  0.12824726  0.96700608     0.36000
C1972       C  0.77392771  0.09932160  0.98059199    -0.26000
C1973       C  0.75017726  0.07361966  0.97666753    -0.15300
C1974       C  0.72613131  0.07765297  0.95899326     0.37100
N1975       N  0.70046509  0.05252431  0.95521985    -0.89500
H1976       H  0.70982192  0.10858511  0.93099165     0.18200
H1977       H  0.79256102  0.09668493  0.99401323     0.18200
N1978       N  0.79796328  0.15444060  0.97313414    -0.88600
H1979       H  0.68501093  0.05907794  0.94145016     0.35500
H1980       H  0.68490455  0.05196741  0.96960558     0.40600
H1981       H  0.78451229  0.17693454  0.97466920     0.40300
H1982       H  0.81624526  0.15697027  0.96046664     0.35100
C1983       C  0.77404380  0.41450189  0.94433781    -0.26600
C1984       C  0.74667393  0.39182270  0.94514292    -0.14700
C1985       C  0.72156754  0.39652785  0.96213325     0.36000
C1986       C  0.72345262  0.42427312  0.97674568    -0.26000
C1987       C  0.74994974  0.44767332  0.97514570    -0.15300
C1988       C  0.77593314  0.44228928  0.95908856     0.37100
N1989       N  0.80399146  0.46531000  0.95768739    -0.89500
H1990       H  0.79378730  0.41101480  0.93176637     0.18200
H1991       H  0.70329803  0.42817531  0.98893406     0.18200
N1992       N  0.69395826  0.37367545  0.96527790    -0.88600
H1993       H  0.82085134  0.45798403  0.94491436     0.35500
H1994       H  0.81727641  0.46388788  0.97306720     0.40600
H1995       H  0.70338181  0.34917551  0.96618468     0.40300
H1996       H  0.67742843  0.37604579  0.95153497     0.35100
C1997       C  0.97072850  0.14002024  0.69452501    -0.26600
C1998       C  0.99834205  0.11811199  0.69257017    -0.14700
C1999       C  0.52198280  0.11988407  0.70439169     0.36000
C2000       C  0.52266036  0.14681366  0.71987756    -0.26000
C2001       C  0.00089628  0.17416571  0.72266816    -0.15300
C2002       C  0.97185154  0.16789505  0.70909964     0.37100
N2003       N  0.94350910  0.19035216  0.70965312    -0.89500
H2004       H  0.94841139  0.13633089  0.68406072     0.18200
H2005       H  0.54342174  0.14756694  0.73171389     0.18200
N2006       N  0.54813402  0.09474655  0.70492547    -0.88600
H2007       H  0.92202498  0.17660047  0.71438636     0.35500
H2008       H  0.93960081  0.19963840  0.69320837     0.40600
H2009       H  0.53677919  0.07193711  0.70946135     0.40300
H2010       H  0.56603024  0.10011719  0.71755403     0.35100
C2011       C  0.97494283  0.33430291  0.69230247    -0.26600
C2012       C  0.99891016  0.35963985  0.69651257    -0.14700
C2013       C  0.02123726  0.35598396  0.71530196     0.36000
C2014       C  0.51809563  0.32415425  0.72944905    -0.26000
C2015       C  0.99789882  0.30024454  0.72309702    -0.15300
C2016       C  0.97423722  0.30483988  0.70534521     0.37100
N2017       N  0.94928673  0.27959110  0.70053333    -0.89500
H2018       H  0.95713136  0.33687129  0.67835109     0.18200
H2019       H  0.53560617  0.32048485  0.74340529     0.18200
N2020       N  0.04446305  0.38194354  0.72184970    -0.88600
H2021       H  0.95227620  0.27200043  0.68362548     0.35500
H2022       H  0.92530501  0.29046288  0.70213925     0.40600
H2023       H  0.52610363  0.40239301  0.72840508     0.40300
H2024       H  0.55865272  0.38615027  0.71305570     0.35100
C2025       C  0.57488731  0.27194069  0.78255725    -0.26600
C2026       C  0.55726892  0.24124342  0.78158466    -0.14700
C2027       C  0.56707229  0.21510821  0.79642347     0.36000
C2028       C  0.59498298  0.21931331  0.81090530    -0.26000
C2029       C  0.61361440  0.24943236  0.81135504    -0.15300
C2030       C  0.60296782  0.27621426  0.79726129     0.37100
N2031       N  0.62112925  0.30740010  0.79729143    -0.89500
H2032       H  0.56768504  0.29226427  0.77133237     0.18200
H2033       H  0.60177683  0.19866511  0.82198848     0.18200
N2034       N  0.54843255  0.18416255  0.79704401    -0.88600
H2035       H  0.60411233  0.32650834  0.80150017     0.35500
H2036       H  0.62987347  0.31190715  0.78077514     0.40600
H2037       H  0.56515016  0.16457480  0.79331035     0.40300
H2038       H  0.53946174  0.18060624  0.81360837     0.35100
C2039       C  0.90982812  0.24203617  0.77435212    -0.26600
C2040       C  0.94331441  0.24745315  0.78179239    -0.14700
C2041       C  0.94869455  0.25941481  0.80410524     0.36000
C2042       C  0.92077918  0.26495019  0.81863405    -0.26000
C2043       C  0.88746125  0.25849347  0.81132082    -0.15300
C2044       C  0.88193256  0.24745095  0.78885106     0.37100
N2045       N  0.84797308  0.24141363  0.78093497    -0.89500
H2046       H  0.90542598  0.23331160  0.75713491     0.18200
H2047       H  0.92523153  0.27325087  0.83594226     0.18200
N2048       N  0.98245261  0.26444727  0.81244314    -0.88600
H2049       H  0.84819583  0.23315566  0.76404858     0.35500
H2050       H  0.83522186  0.26442171  0.78100898     0.40600
H2051       H  0.98467951  0.28943086  0.81772619     0.40300
H2052       H  0.98589260  0.24902272  0.82667194     0.35100
C2053       C  0.81670427  0.02906689  0.70658978    -0.26600
C2054       C  0.80373587  0.50403393  0.71907201    -0.14700
C2055       C  0.82178926  0.47349859  0.71865261     0.36000
C2056       C  0.84883785  0.46926409  0.70329529    -0.26000
C2057       C  0.85863375  0.49526669  0.68847365    -0.15300
C2058       C  0.84478638  0.02532216  0.69232528     0.37100
N2059       N  0.85519704  0.05327898  0.67860753    -0.89500
H2060       H  0.80379148  0.05307717  0.70691691     0.18200
H2061       H  0.86285214  0.44589470  0.70352463     0.18200
N2062       N  0.81385351  0.44731704  0.73451475    -0.88600
H2063       H  0.86074543  0.07343812  0.68939610     0.35500
H2064       H  0.83483755  0.06020214  0.66820888     0.40600
H2065       H  0.83551168  0.44241924  0.74423261     0.40300
H2066       H  0.80791759  0.42563441  0.72529575     0.35100
C2067       C  0.62692329  0.49119841  0.71676637    -0.26600
C2068       C  0.63273678  0.49366468  0.69331037    -0.14700
C2069       C  0.66630362  0.49766816  0.68533068     0.36000
C2070       C  0.69316713  0.50021592  0.70092209    -0.26000
C2071       C  0.68715962  0.49938861  0.72443663    -0.15300
C2072       C  0.65368286  0.49419246  0.73237948     0.37100
N2073       N  0.64619708  0.49156584  0.75616966    -0.89500
H2074       H  0.60131368  0.48767169  0.72301034     0.18200
H2075       H  0.71896890  0.01227268  0.69265308     0.18200
N2076       N  0.67508696  0.00851484  0.65897180    -0.88600
H2077       H  0.65263574  0.51412053  0.76415134     0.35500
H2078       H  0.66105778  0.47237725  0.76308761     0.40600
H2079       H  0.66053715  0.52003958  0.65464821     0.40300
H2080       H  0.66477232  0.47768711  0.65374499     0.35100
C2081       C  0.72400308  0.09805765  0.78080963    -0.26600
C2082       C  0.74953102  0.07323764  0.78063154    -0.14700
C2083       C  0.77817543  0.07805667  0.79489255     0.36000
C2084       C  0.78016866  0.10614703  0.80919783    -0.26000
C2085       C  0.75394594  0.12974969  0.80996431    -0.15300
C2086       C  0.72598563  0.12614668  0.79523773     0.37100
N2087       N  0.69963862  0.15109481  0.79496795    -0.89500
H2088       H  0.70207727  0.09613140  0.77001446     0.18200
H2089       H  0.80188001  0.10873428  0.82037626     0.18200
N2090       N  0.80521458  0.05404868  0.79520839    -0.88600
H2091       H  0.68064595  0.14473108  0.78330722     0.35500
H2092       H  0.71038472  0.17359450  0.78921909     0.40600
H2093       H  0.82768159  0.06649098  0.79089054     0.40300
H2094       H  0.80773083  0.04491201  0.81181416     0.35100
C2095       C  0.72865130  0.42372516  0.77625351    -0.26600
C2096       C  0.75532841  0.44673337  0.77896549    -0.14700
C2097       C  0.78221734  0.43889434  0.79407574     0.36000
C2098       C  0.78006237  0.40986514  0.80750009    -0.26000
C2099       C  0.75209640  0.38804739  0.80608515    -0.15300
C2100       C  0.72674635  0.39453727  0.78971229     0.37100
N2101       N  0.69896522  0.37175303  0.78672594    -0.89500
H2102       H  0.70833012  0.42920443  0.76439755     0.18200
H2103       H  0.80018403  0.40490338  0.81961334     0.18200
N2104       N  0.81181378  0.45984583  0.79648282    -0.88600
H2105       H  0.69900976  0.36360920  0.76981594     0.35500
H2106       H  0.67646672  0.38496808  0.78950901     0.40600
H2107       H  0.81208946  0.47919030  0.78449292     0.40300
H2108       H  0.83295496  0.44507981  0.79268330     0.35100
C2109       C  0.59974066  0.23460774  0.05303871    -0.26600
C2110       C  0.62114645  0.26259312  0.05552101    -0.14700
C2111       C  0.61474758  0.29183705  0.04260291     0.36000
C2112       C  0.58591430  0.29307236  0.02851281    -0.26000
C2113       C  0.56394417  0.26542334  0.02670827    -0.15300
C2114       C  0.57145641  0.23547695  0.03867562     0.37100
N2115       N  0.55086451  0.20566841  0.03697244    -0.89500
H2116       H  0.60441980  0.21193608  0.06274199     0.18200
H2117       H  0.58018016  0.31587831  0.01920073     0.18200
N2118       N  0.63741768  0.32011651  0.04388284    -0.88600
H2119       H  0.56620890  0.18648118  0.03059210     0.35500
H2120       H  0.53123681  0.20848756  0.02522439     0.40600
H2121       H  0.62901832  0.33958970  0.03334123     0.40300
H2122       H  0.66086657  0.31244526  0.03745715     0.35100
C2123       C  0.93384333  0.29750333  0.04090545    -0.26600
C2124       C  0.93922695  0.26887051  0.02753450    -0.14700
C2125       C  0.91640062  0.24166230  0.02909943     0.36000
C2126       C  0.88823473  0.24399220  0.04364065    -0.26000
C2127       C  0.88302102  0.27245188  0.05729555    -0.15300
C2128       C  0.90630337  0.29942266  0.05591541     0.37100
N2129       N  0.90329045  0.32809458  0.07044807    -0.89500
H2130       H  0.95173364  0.31819212  0.04013324     0.18200
H2131       H  0.87076098  0.22301219  0.04480486     0.18200
N2132       N  0.92257167  0.21131879  0.01659787    -0.88600
H2133       H  0.90164902  0.34952950  0.06020286     0.35500
H2134       H  0.92539572  0.32994752  0.08021590     0.40600
H2135       H  0.94503489  0.20084054  0.02282796     0.40300
H2136       H  0.90337773  0.19370129  0.01957534     0.35100
C2137       C  0.60435237  0.23292022  0.95457504    -0.26600
C2138       C  0.62110827  0.26229711  0.94732735    -0.14700
C2139       C  0.60982992  0.29369662  0.95561704     0.36000
C2140       C  0.58145287  0.29527579  0.96989590    -0.26000
C2141       C  0.56418038  0.26608354  0.97625984    -0.15300
C2142       C  0.57582419  0.23467309  0.96877587     0.37100
N2143       N  0.55805238  0.20464196  0.97503954    -0.89500
H2144       H  0.61243816  0.20852611  0.94858542     0.18200
H2145       H  0.57242300  0.31951747  0.97566097     0.18200
N2146       N  0.62680395  0.32418786  0.94948252    -0.88600
H2147       H  0.55014719  0.19264106  0.96012284     0.35500
H2148       H  0.57508196  0.18878729  0.98343473     0.40600
H2149       H  0.63428459  0.33610134  0.96451968     0.40300
H2150       H  0.60934527  0.33976637  0.94124216     0.35100
C2151       C  0.91588866  0.29065191  0.97701322    -0.26600
C2152       C  0.93765735  0.26284035  0.97648304    -0.14700
C2153       C  0.92917486  0.23488368  0.96277909     0.36000
C2154       C  0.89999267  0.23586481  0.94937706    -0.26000
C2155       C  0.87921518  0.26446941  0.94876782    -0.15300
C2156       C  0.88655411  0.29170819  0.96339708     0.37100
N2157       N  0.86436878  0.32025005  0.96442553    -0.89500
H2158       H  0.92222991  0.31189707  0.98773760     0.18200
H2159       H  0.89440142  0.21447663  0.93859987     0.18200
N2160       N  0.94970602  0.20519795  0.96198612    -0.88600
H2161       H  0.87357811  0.33807460  0.97595496     0.35500
H2162       H  0.84109010  0.31191513  0.97081361     0.40600
H2163       H  0.95311572  0.19609842  0.97849713     0.40300
H2164       H  0.97338977  0.21117019  0.95519262     0.35100
C2165       C  0.82036419  0.47386641  0.28570929    -0.26600
C2166       C  0.80135002  0.50358534  0.28610030    -0.14700
C2167       C  0.80745538  0.02403781  0.30345780     0.36000
C2168       C  0.83534743  0.52337643  0.31783378    -0.26000
C2169       C  0.85620282  0.49488759  0.31639779    -0.15300
C2170       C  0.84756638  0.46914863  0.30078795     0.37100
N2171       N  0.86666485  0.43868000  0.29919094    -0.89500
H2172       H  0.81500865  0.45489745  0.27297204     0.18200
H2173       H  0.84036710  0.03878147  0.33086208     0.18200
N2174       N  0.78438501  0.05155033  0.30671581    -0.88600
H2175       H  0.86512505  0.42605822  0.31476140     0.35500
H2176       H  0.89200780  0.44474627  0.29595299     0.40600
H2177       H  0.79199635  0.06640325  0.32047795     0.40300
H2178       H  0.76077610  0.04135290  0.31098892     0.35100
C2179       C  0.62485699  0.00287842  0.28662017    -0.26600
C2180       C  0.63341008  0.48720947  0.30976622    -0.14700
C2181       C  0.66706808  0.48031138  0.31629110     0.36000
C2182       C  0.69348158  0.48647071  0.30075602    -0.26000
C2183       C  0.68664448  0.49919533  0.27891282    -0.15300
C2184       C  0.65169359  0.00897875  0.27136018     0.37100
N2185       N  0.64495979  0.02553252  0.25007726    -0.89500
H2186       H  0.59977017  0.01247357  0.28283521     0.18200
H2187       H  0.71951433  0.48250519  0.30600472     0.18200
N2188       N  0.67428711  0.46788582  0.33876622    -0.88600
H2189       H  0.61927945  0.03164825  0.24861816     0.35500
H2190       H  0.65025216  0.00845094  0.23705699     0.40600
H2191       H  0.66755388  0.48658321  0.35038942     0.40300
H2192       H  0.70031696  0.46390006  0.34077824     0.35100
C2193       C  0.77806952  0.09804026  0.22385186    -0.26600
C2194       C  0.75144802  0.07423778  0.22277804    -0.14700
C2195       C  0.72583283  0.07916728  0.20619402     0.36000
C2196       C  0.72726005  0.10676196  0.19139751    -0.26000
C2197       C  0.75428199  0.12962040  0.19210145    -0.15300
C2198       C  0.77978600  0.12546798  0.20871272     0.37100
N2199       N  0.80737054  0.14905662  0.21024133    -0.89500
H2200       H  0.79831738  0.09552825  0.23598575     0.18200
H2201       H  0.70752996  0.10957119  0.17868681     0.18200
N2202       N  0.69864125  0.05548099  0.20381213    -0.88600
H2203       H  0.82430436  0.14222298  0.22313512     0.35500
H2204       H  0.79720516  0.17229157  0.21489814     0.40600
H2205       H  0.69927945  0.04586731  0.18726463     0.40300
H2206       H  0.67575154  0.06830300  0.20590078     0.35100
C2207       C  0.72869682  0.42355446  0.22916154    -0.26600
C2208       C  0.75308729  0.44821414  0.22420149    -0.14700
C2209       C  0.77767237  0.44176975  0.20740139     0.36000
C2210       C  0.77534726  0.41235715  0.19435243    -0.26000
C2211       C  0.74929240  0.38877719  0.19792972    -0.15300
C2212       C  0.72661762  0.39388379  0.21629902     0.37100
N2213       N  0.70190450  0.36924813  0.22271977    -0.89500
H2214       H  0.71034483  0.42790964  0.24254616     0.18200
H2215       H  0.79363025  0.40829446  0.18089740     0.18200
N2216       N  0.80483592  0.46527580  0.20360738    -0.88600
H2217       H  0.71416493  0.34624185  0.22510510     0.35500
H2218       H  0.68408498  0.36683433  0.20971298     0.40600
H2219       H  0.82087931  0.45681137  0.19068746     0.40300
H2220       H  0.81938222  0.46620402  0.21848724     0.35100
C2221       C  0.74880120  0.54286183  0.23764979     0.86200
C2222       C  0.71633807  0.53777112  0.25166441    -0.54000
C2223       C  0.71530588  0.00773180  0.26276168     0.09100
C2224       C  0.74739670  0.98561241  0.26024811     0.20100
C2225       C  0.77753703  0.53957476  0.25537604    -0.54700
C2226       C  0.77698638  0.00858931  0.26754572     0.09200
C2227       C  0.75208804  0.51084356  0.22325914    -0.54300
C2228       C  0.75209654  0.98115333  0.23443413     0.09800
H2229       H  0.69623599  0.55634461  0.25229284     0.14300
H2230       H  0.74650807  0.96139797  0.26959891     0.00100
H2231       H  0.79739075  0.55780944  0.25832748     0.14600
H2232       H  0.75628866  0.01184066  0.20440535     0.14400
C2233       C  0.97180381  0.76074882  0.01360229     0.02000
C2234       C  0.97151201  0.76342409  0.98962484     0.02000
C2235       C  0.49994073  0.76855154  0.97768927    -0.18500
C2236       C  0.53077218  0.76914673  0.98946450     0.02000
C2237       C  0.53054055  0.77082753  0.01338635     0.02000
C2238       C  0.49971033  0.77121001  0.02513408    -0.18500
H2239       H  0.49971420  0.77171368  0.04359285     0.04000
H2240       H  0.49997495  0.76756161  0.95924199     0.04000
C2241       C  0.74852295  0.54144140  0.76688224     0.86200
C2242       C  0.77677379  0.53977634  0.74889318    -0.54000
C2243       C  0.77746922  0.00957708  0.73684724     0.09100
C2244       C  0.74713959  0.98609218  0.74171744     0.20100
C2245       C  0.71583346  0.53607262  0.75279649    -0.54700
C2246       C  0.71557513  0.00820343  0.73802782     0.09200
C2247       C  0.74794545  0.00919739  0.78004293    -0.54300
C2248       C  0.74856474  0.98021512  0.76760415     0.09800
H2249       H  0.79550064  0.55954630  0.74664415     0.14300
H2250       H  0.74694434  0.96270018  0.73144364     0.00100
H2251       H  0.69521505  0.55380239  0.75134615     0.14600
H2252       H  0.74870086  0.00925234  0.79852634     0.14400
C2253       C  0.50015793  0.70656184  0.73586052     0.86200
C2254       C  0.53044021  0.70997873  0.75237784    -0.54000
C2255       C  0.53060304  0.73890939  0.76491753     0.09100
C2256       C  0.50052905  0.76235264  0.75963779     0.20100
C2257       C  0.97070573  0.70737104  0.75467651    -0.54700
C2258       C  0.96996280  0.73620096  0.76742611     0.09200
C2259       C  0.50161318  0.73857929  0.72148182    -0.54300
C2260       C  0.50125964  0.76763597  0.73370203     0.09800
H2261       H  0.55004120  0.69139032  0.75481608     0.14300
H2262       H  0.50058830  0.78619158  0.76943243     0.00100
H2263       H  0.95174213  0.68769775  0.75627383     0.14600
H2264       H  0.50192853  0.73830921  0.70298677     0.14400
C2265       C  0.75090048  0.97954681  0.01351764     0.02000
C2266       C  0.75185758  0.98013433  0.98951648     0.02000
C2267       C  0.74791947  0.51020580  0.97789505    -0.18500
C2268       C  0.74660655  0.54072410  0.98999787     0.02000
C2269       C  0.74722715  0.53973708  0.01406882     0.02000
C2270       C  0.74783474  0.50857433  0.02528149    -0.18500
H2271       H  0.74762331  0.50794435  0.04373785     0.04000
H2272       H  0.74807935  0.51080754  0.95945030     0.04000
C2273       C  0.85215629  0.77041212  0.93256617     0.42200
N2274       N  0.82004445  0.75194899  0.90555483     0.01100
C2275       C  0.72014013  0.84517614  0.83193447    -0.06800
H2276       H  0.68861124  0.85660721  0.91777743     0.06600
C2277       C  0.66116173  0.73209155  0.91955853    -0.07200
Co2278     Co  0.79197327  0.80787624  0.87737554     0.74200
N2279       N  0.72856847  0.83226634  0.89961147    -0.26300
Co2280     Co  0.70401420  0.80249849  0.87554096     0.74100
C2281       C  0.64586509  0.76233534  0.92908946     0.42300
N2282       N  0.73670617  0.69330364  0.90590407     0.00700
N2283       N  0.67845061  0.77615014  0.90127615     0.00800
N2284       N  0.77721113  0.84873602  0.83431434    -0.47200
H2285       H  0.84131393  0.82553793  0.92183119     0.06600
N2286       N  0.76188839  0.83438063  0.90044857     0.01100
N2287       N  0.67977937  0.77194921  0.85167032     0.00800
C2288       C  0.64406339  0.75351568  0.82693336     0.42400
N2289       N  0.77004625  0.69533186  0.90650712    -0.25800
C2290       C  0.84313835  0.79057266  0.83827811    -0.06700
N2291       N  0.84020380  0.74227771  0.92234302    -0.46900
N2292       N  0.65719432  0.78173327  0.83627309    -0.47100
C2293       C  0.85770069  0.75967329  0.82915291     0.42200
N2294       N  0.76459934  0.82964201  0.85073882     0.01100
N2295       N  0.77242496  0.69111133  0.85704996    -0.25800
N2296       N  0.81818999  0.78491723  0.90384019    -0.26300
N2297       N  0.73901874  0.68953922  0.85629808     0.00700
H2298       H  0.81165189  0.66557914  0.83824388     0.06600
H2299       H  0.65543723  0.69850517  0.83670980     0.06600
N2300       N  0.73119464  0.82750589  0.84995447    -0.26300
N2301       N  0.68078993  0.74313419  0.90256339    -0.26000
N2302       N  0.82293934  0.74711910  0.85587495     0.01100
C2303       C  0.74473265  0.86797283  0.92678044     0.42500
C2304       C  0.78149209  0.67602066  0.92357841    -0.07200
N2305       N  0.68188382  0.73894526  0.85335543    -0.26000
H2306       H  0.65757083  0.70602479  0.92418133     0.06600
N2307       N  0.77256107  0.85562032  0.91626115    -0.47200
H2308       H  0.80794566  0.67099382  0.92674058     0.06600
C2309       C  0.75518998  0.65516961  0.83034381     0.42300
C2310       C  0.83738495  0.79883754  0.92010913    -0.06700
Co2311     Co  0.79689738  0.72099047  0.88129063     0.73800
N2312       N  0.72442275  0.67288259  0.92173033    -0.46900
C2313       C  0.75079725  0.85908628  0.82143466     0.42600
N2314       N  0.84430031  0.73385505  0.84102086    -0.46900
Co2315     Co  0.70931538  0.71580022  0.87948750     0.73900
C2316       C  0.66053341  0.72511198  0.83828223    -0.07200
C2317       C  0.71539642  0.85260282  0.91546448    -0.06800
N2318       N  0.82162958  0.78023454  0.85459733    -0.26300
N2319       N  0.65757172  0.78866269  0.91675197    -0.47100
H2320       H  0.69383539  0.84930775  0.82756472     0.06600
C2321       C  0.78502601  0.67016269  0.84127726    -0.07200
Cl2322     Cl  0.75055057  0.76177699  0.87836136    -0.50200
C2323       C  0.75105648  0.66135473  0.93399465     0.42300
H2324       H  0.84844813  0.81640796  0.83377296     0.06500
N2325       N  0.72775807  0.66825493  0.84076397    -0.46900
C2326       C  0.74890353  0.85992472  0.18016991     0.42200
N2327       N  0.76390345  0.82893969  0.15182663     0.01100
C2328       C  0.66112762  0.73325856  0.08209473    -0.06800
H2329       H  0.65304393  0.69922894  0.16499310     0.06600
C2330       C  0.78058576  0.67137567  0.16416760    -0.07200
Co2331     Co  0.70386086  0.80258913  0.12629371     0.74200
N2332       N  0.67972190  0.73959606  0.14844143    -0.26300
Co2333     Co  0.70744135  0.71582099  0.12311280     0.74100
C2334       C  0.75019501  0.65698194  0.17465851     0.42300
N2335       N  0.82154346  0.74535880  0.14799310     0.00700
N2336       N  0.73548936  0.68935548  0.14719281     0.00800
N2337       N  0.65837709  0.78985266  0.08510915    -0.47200
H2338       H  0.69218484  0.85131396  0.17191427     0.06600
N2339       N  0.67795240  0.77262394  0.14998931     0.01100
N2340       N  0.73512369  0.69234856  0.09760682     0.00800
C2341       C  0.74976057  0.65911403  0.07053594     0.42400
N2342       N  0.82030438  0.77846113  0.14918597    -0.25800
C2343       C  0.71766780  0.85106687  0.08572429    -0.06700
N2344       N  0.77587134  0.84849110  0.16822310    -0.46900
N2345       N  0.72291519  0.67172218  0.08190704    -0.47100
C2346       C  0.74754858  0.86545497  0.07461736     0.42200
N2347       N  0.67883653  0.77674316  0.10058802     0.01100
N2348       N  0.81898262  0.78190609  0.09989741    -0.25800
N2349       N  0.73047470  0.82744748  0.15185907    -0.26300
N2350       N  0.81996577  0.74878910  0.09871383     0.00700
H2351       H  0.84542439  0.82099620  0.08180325     0.06600
H2352       H  0.80654837  0.66851830  0.07775419     0.06600
N2353       N  0.68058034  0.74371570  0.09931868    -0.26300
N2354       N  0.76893127  0.69100216  0.14732469    -0.26000
N2355       N  0.76332857  0.83279886  0.10185577     0.01100
C2356       C  0.64131566  0.75424238  0.17406842     0.42500
C2357       C  0.84273356  0.78891329  0.16487089    -0.07200
N2358       N  0.76850066  0.69359284  0.09766442    -0.26000
H2359       H  0.80701199  0.66687125  0.16799591     0.06600
N2360       N  0.65489889  0.78252378  0.16501036    -0.47200
H2361       H  0.84896739  0.81481468  0.16858064     0.06600
C2362       C  0.85401839  0.76525629  0.07238002     0.42300
C2363       C  0.71868039  0.84622196  0.16901067    -0.06700
Co2364     Co  0.79199831  0.80616504  0.12575689     0.73800
N2365       N  0.84454244  0.73227054  0.16179627    -0.46900
C2366       C  0.64640449  0.76395869  0.07263319     0.42600
N2367       N  0.77493264  0.85308736  0.08569114    -0.46900
Co2368     Co  0.79512310  0.71927316  0.12291071     0.73900
C2369       C  0.78010375  0.67364518  0.08107861    -0.07200
C2370       C  0.65795826  0.72583181  0.16320637    -0.06800
N2371       N  0.72992655  0.83134648  0.10227678    -0.26300
N2372       N  0.72326561  0.66894848  0.16302483    -0.47100
H2373       H  0.65700175  0.70727459  0.07750819     0.06600
C2374       C  0.83966422  0.79461299  0.08392418    -0.07200
Cl2375     Cl  0.74964490  0.76097076  0.12458222    -0.50200
C2376       C  0.85885741  0.75816690  0.17308345     0.42300
H2377       H  0.69107141  0.85498824  0.08216539     0.06500
N2378       N  0.84087957  0.73785469  0.08275949    -0.46900
C2379       C  0.60485116  0.99339824  0.67474790     0.42200
N2380       N  0.57145274  0.97519451  0.64870443     0.01100
C2381       C  0.96563719  0.57292379  0.57976692    -0.06800
H2382       H  0.93798658  0.58215236  0.66627398     0.06600
C2383       C  0.90752078  0.95848700  0.66819201    -0.07200
Co2384     Co  0.53927038  0.53096034  0.62437344     0.74200
N2385       N  0.97684077  0.55788834  0.64643564    -0.26300
Co2386     Co  0.95159863  0.52852026  0.62245009     0.74100
C2387       C  0.89222019  0.98978640  0.67646938     0.42300
N2388       N  0.98634834  0.91840904  0.65447455     0.00700
N2389       N  0.92588968  0.50260067  0.64785610     0.00800
N2390       N  0.52327970  0.57317596  0.58186480    -0.47200
H2391       H  0.59352873  0.54809919  0.66782710     0.06600
N2392       N  0.50990455  0.55742101  0.64763648     0.01100
N2393       N  0.92768719  0.49813756  0.59862082     0.00800
C2394       C  0.89450238  0.97855989  0.57452983     0.42400
N2395       N  0.52057290  0.91958727  0.65023732    -0.25800
C2396       C  0.58704325  0.51460684  0.58429116    -0.06700
N2397       N  0.59274768  0.96522580  0.66483199    -0.46900
N2398       N  0.90776697  0.50864173  0.58198341    -0.47100
C2399       C  0.60234854  0.98322519  0.56992392     0.42200
N2400       N  0.51138518  0.55303936  0.59798077     0.01100
N2401       N  0.52228746  0.91482127  0.60095639    -0.25800
N2402       N  0.56712797  0.50797045  0.65045264    -0.26300
N2403       N  0.98601132  0.91353173  0.60466612     0.00700
H2404       H  0.56183244  0.89016259  0.58242899     0.06600
H2405       H  0.90456739  0.92328021  0.58454821     0.06600
N2406       N  0.97763221  0.55404202  0.59689309    -0.26300
N2407       N  0.92937893  0.96817228  0.65185942    -0.26000
N2408       N  0.57197406  0.97071508  0.59902363     0.01100
C2409       C  0.99453814  0.59273333  0.67350130     0.42500
C2410       C  0.53245627  0.90103049  0.66746462    -0.07200
N2411       N  0.92976184  0.96337213  0.60245503    -0.26000
H2412       H  0.90142420  0.93275212  0.67250236     0.06600
N2413       N  0.52125084  0.57880399  0.66311023    -0.47200
H2414       H  0.55898834  0.89621059  0.67041531     0.06600
C2415       C  0.00085172  0.88121206  0.57712004     0.42300
C2416       C  0.58817693  0.52158775  0.66590236    -0.06700
Co2417     Co  0.54714170  0.94461215  0.62481335     0.73800
N2418       N  0.97455943  0.89935264  0.67117349    -0.46900
C2419       C  0.99574071  0.58707509  0.56869111     0.42600
N2420       N  0.59123971  0.95750217  0.58296008    -0.46900
Co2421     Co  0.95755168  0.94023179  0.62845970     0.73900
C2422       C  0.90933220  0.94986086  0.58662651    -0.07200
C2423       C  0.96454924  0.57805110  0.66271139    -0.06800
N2424       N  0.56735517  0.50349171  0.60120698    -0.26300
N2425       N  0.90331858  0.51615351  0.66165551    -0.47100
H2426       H  0.93909536  0.57784095  0.57679012     0.06600
C2427       C  0.53509217  0.89436118  0.58505460    -0.07200
Cl2428     Cl  0.99962513  0.98570937  0.62647940    -0.50200
C2429       C  0.00158310  0.88806669  0.68312713     0.42300
H2430       H  0.59125600  0.54077254  0.58025064     0.06500
N2431       N  0.97391790  0.89322769  0.58872231    -0.46900
C2432       C  0.00066036  0.59091381  0.32590378     0.42200
N2433       N  0.98497086  0.55884742  0.35356017     0.01100
C2434       C  0.58527921  0.94981951  0.41679054    -0.06800
H2435       H  0.59190317  0.92556386  0.33028781     0.06600
C2436       C  0.96742779  0.90283429  0.33272128    -0.07200
Co2437     Co  0.54563464  0.52665537  0.37712459     0.74200
N2438       N  0.56645827  0.96359166  0.35023896    -0.26300
Co2439     Co  0.53788029  0.93819893  0.37496711     0.74100
C2440       C  0.99790697  0.88979238  0.32152799     0.42300
N2441       N  0.92730133  0.97625835  0.35273766     0.00700
N2442       N  0.50804287  0.91555386  0.34997634     0.00800
N2443       N  0.58935420  0.50897200  0.41845770    -0.47200
H2444       H  0.55810757  0.57780376  0.33239159     0.06600
N2445       N  0.57060971  0.49924681  0.35213758     0.01100
N2446       N  0.50925021  0.91327753  0.39981139     0.00800
C2447       C  0.99774394  0.88318122  0.42726944     0.42400
N2448       N  0.92733477  0.50964319  0.35494575    -0.25800
C2449       C  0.53305495  0.57235095  0.41903994    -0.06700
N2450       N  0.97340816  0.57963351  0.33768980    -0.46900
N2451       N  0.52104261  0.89214209  0.41534473    -0.47100
C2452       C  0.00427627  0.59163130  0.43008388     0.42200
N2453       N  0.56993502  0.49772165  0.40176312     0.01100
N2454       N  0.92997436  0.50879713  0.40396610    -0.25800
N2455       N  0.51957019  0.55427881  0.35255049    -0.26300
N2456       N  0.92979327  0.97379066  0.40235393     0.00700
H2457       H  0.90722277  0.54725618  0.42463893     0.06600
H2458       H  0.94112806  0.89408331  0.42029874     0.06600
N2459       N  0.56631396  0.96255139  0.39990919    -0.26300
N2460       N  0.97903628  0.92116970  0.35029013    -0.26000
N2461       N  0.98675812  0.55858129  0.40348471     0.01100
C2462       C  0.60155642  0.98177432  0.32313188     0.42500
C2463       C  0.90488245  0.52274335  0.34038839    -0.07200
N2464       N  0.97966650  0.91798136  0.40006355    -0.26000
H2465       H  0.94101666  0.89790706  0.32905259     0.06600
N2466       N  0.59209712  0.51148938  0.33694869    -0.47200
H2467       H  0.89993310  0.54927095  0.33820381     0.06600
C2468       C  0.89897990  0.98803787  0.43082671     0.42300
C2469       C  0.53154964  0.57331026  0.33553718    -0.06700
Co2470     Co  0.95689436  0.53447293  0.37897434     0.73800
N2471       N  0.90407546  0.96566953  0.33804320    -0.46900
C2472       C  0.60070339  0.97907214  0.42779914     0.42600
N2473       N  0.97630349  0.57989469  0.41927894    -0.46900
Co2474     Co  0.95338848  0.94673714  0.37627708     0.73900
C2475       C  0.96768253  0.89804033  0.41662117    -0.07200
C2476       C  0.58700076  0.95177305  0.33381623    -0.06800
N2477       N  0.52043241  0.55334079  0.40221554    -0.26300
N2478       N  0.51927029  0.89583177  0.33356217    -0.47100
H2479       H  0.58891042  0.92335488  0.42014982     0.06600
C2480       C  0.91098214  0.52092256  0.42092002    -0.07200
Cl2481     Cl  0.99960393  0.98800792  0.37680017    -0.50200
C2482       C  0.89011916  0.99340726  0.32866109     0.42300
H2483       H  0.55970642  0.57706605  0.42182906     0.06500
N2484       N  0.90998111  0.96149846  0.41855706    -0.46900
C2485       C  0.99725353  0.76959033  0.51400166     0.02000
C2486       C  0.99872656  0.77057460  0.48999724     0.02000
C2487       C  0.49989393  0.73534507  0.47715921    -0.18500
C2488       C  0.00024665  0.70896056  0.48879248     0.02000
C2489       C  0.99983521  0.70782046  0.51291131     0.02000
C2490       C  0.99834293  0.73825420  0.52509200    -0.18500
H2491       H  0.99787143  0.73755598  0.54353266     0.04000
H2492       H  0.50094024  0.73592984  0.45872695     0.04000
C2493       C  0.78099604  0.97972117  0.48829727     0.02000
C2494       C  0.77985175  0.97670466  0.51221520     0.02000
C2495       C  0.74823673  0.97475665  0.52302818    -0.18500
C2496       C  0.71783893  0.97533576  0.51051340     0.02000
C2497       C  0.71892578  0.97808659  0.48656050     0.02000
C2498       C  0.75060513  0.97995136  0.47576799    -0.18500
H2499       H  0.75167736  0.98165833  0.45736206     0.04000
H2500       H  0.74725777  0.97306245  0.54143835     0.04000
C2501       C  0.49895547  0.70254185  0.26267258     0.86200
C2502       C  0.96892128  0.71186369  0.24876771    -0.54000
C2503       C  0.96856567  0.74162913  0.23719902     0.09100
C2504       C  0.49735982  0.76028382  0.24114078     0.20100
C2505       C  0.52881658  0.70808093  0.24611643    -0.54700
C2506       C  0.52792538  0.73810153  0.23489561     0.09200
C2507       C  0.00091970  0.73818218  0.27935509    -0.54300
C2508       C  0.49932646  0.76371165  0.26717447     0.09800
H2509       H  0.94921397  0.69297570  0.24677096     0.14300
H2510       H  0.49667506  0.78467780  0.23194439     0.00100
H2511       H  0.54939035  0.69069557  0.24322064     0.14600
H2512       H  0.00110316  0.73647494  0.29778849     0.14400
C2513       C  0.51902879  0.83103183  0.31089276    -0.26600
C2514       C  0.00021533  0.86040176  0.30632243    -0.14700
C2515       C  0.98186728  0.85783277  0.28577006     0.36000
C2516       C  0.98421621  0.82841787  0.27276429    -0.26000
C2517       C  0.00365095  0.80096550  0.28018299    -0.15300
C2518       C  0.52191534  0.80192413  0.29773470     0.37100
N2519       N  0.54820488  0.77825979  0.30276823    -0.89500
H2520       H  0.53641322  0.83446661  0.32500220     0.18200
H2521       H  0.97000047  0.82677586  0.25712526     0.18200
N2522       N  0.96121323  0.88478377  0.27750785    -0.88600
H2523       H  0.54512906  0.77019717  0.31958332     0.35500
H2524       H  0.57151068  0.79070475  0.30159689     0.40600
H2525       H  0.97625419  0.90637226  0.27626704     0.40300
H2526       H  0.94186662  0.88925262  0.28921731     0.35100
C2527       C  0.97385544  0.64247865  0.30996568    -0.26600
C2528       C  0.99950659  0.61819091  0.30850868    -0.14700
C2529       C  0.52335278  0.61654451  0.28866995     0.36000
C2530       C  0.52218018  0.64424032  0.27395157    -0.26000
C2531       C  0.99825817  0.67428665  0.27821235    -0.15300
C2532       C  0.97275269  0.66999686  0.29495452     0.37100
N2533       N  0.94580527  0.69389820  0.29701711    -0.89500
H2534       H  0.95480954  0.64057348  0.32318353     0.18200
H2535       H  0.54097253  0.64522853  0.26069833     0.18200
N2536       N  0.54811161  0.59113969  0.28416936    -0.88600
H2537       H  0.94632883  0.70370636  0.31351316     0.35500
H2538       H  0.92282207  0.68114958  0.29485308     0.40600
H2539       H  0.53605882  0.56772782  0.28362256     0.40300
H2540       H  0.56633056  0.59128855  0.29700977     0.35100
C2541       C  0.97766457  0.64429516  0.44360906    -0.26600
C2542       C  0.00399725  0.62081411  0.44589507    -0.14700
C2543       C  0.52529119  0.61844319  0.46509699     0.36000
C2544       C  0.52436951  0.64753198  0.47856453    -0.26000
C2545       C  0.00080036  0.67811450  0.47444317    -0.15300
C2546       C  0.97571436  0.67271045  0.45769098     0.37100
N2547       N  0.94821595  0.69609170  0.45513235    -0.89500
H2548       H  0.95852741  0.64064995  0.43059515     0.18200
H2549       H  0.54265986  0.65033288  0.49220457     0.18200
N2550       N  0.54852495  0.59239463  0.47134729    -0.88600
H2551       H  0.93395376  0.69538958  0.47011219     0.35500
H2552       H  0.93201098  0.68864357  0.44196870     0.40600
H2553       H  0.56641301  0.58947178  0.45847122     0.40300
H2554       H  0.53499156  0.56996089  0.47332467     0.35100
C2555       C  0.96800740  0.84246793  0.45302745    -0.26600
C2556       C  0.99875330  0.85646784  0.44522168    -0.14700
C2557       C  0.52684477  0.84052516  0.45376191     0.36000
C2558       C  0.52689708  0.81339812  0.46903404    -0.26000
C2559       C  0.99819767  0.80238059  0.47680010    -0.15300
C2560       C  0.96756964  0.81560176  0.46857574     0.37100
N2561       N  0.93596526  0.80105591  0.47547037    -0.89500
H2562       H  0.94399740  0.85163298  0.44667702     0.18200
H2563       H  0.55087032  0.80393691  0.47536920     0.18200
N2564       N  0.55894365  0.85497408  0.44793145    -0.88600
H2565       H  0.92328242  0.79271964  0.46089006     0.35500
H2566       H  0.92135722  0.81993907  0.48294920     0.40600
H2567       H  0.55831282  0.88064446  0.45161327     0.40300
H2568       H  0.56331591  0.85140930  0.43057353     0.35100
C2569       C  0.65244948  0.00600986  0.44362952    -0.26600
C2570       C  0.62905035  0.97941056  0.44443540    -0.14700
C2571       C  0.63401262  0.95324627  0.46039417     0.36000
C2572       C  0.66354077  0.95306990  0.47391689    -0.26000
C2573       C  0.68751957  0.97914276  0.47243524    -0.15300
C2574       C  0.68140692  0.00612557  0.45747608     0.37100
N2575       N  0.70052945  0.53983697  0.46036103    -0.89500
H2576       H  0.64564327  0.53111468  0.43527377     0.18200
H2577       H  0.66794259  0.93247910  0.48562212     0.18200
N2578       N  0.60896176  0.92728279  0.46307557    -0.88600
H2579       H  0.69110078  0.05576321  0.46039041     0.35500
H2580       H  0.71323597  0.03603850  0.43970481     0.40600
H2581       H  0.58679986  0.93862657  0.46903882     0.40300
H2582       H  0.61644933  0.91007491  0.47556053     0.35100
C2583       C  0.84674767  0.51876164  0.45037009    -0.26600
C2584       C  0.87094063  0.98663496  0.44748903    -0.14700
C2585       C  0.86488672  0.95779307  0.46084465     0.36000
C2586       C  0.83615098  0.95635615  0.47491421    -0.26000
C2587       C  0.81330067  0.98328118  0.47573900    -0.15300
C2588       C  0.81778953  0.51766336  0.46411427     0.37100
N2589       N  0.79651973  0.54665023  0.46604427    -0.89500
H2590       H  0.85221851  0.54162165  0.44106049     0.18200
H2591       H  0.83110347  0.93377141  0.48466832     0.18200
N2592       N  0.88780883  0.92994747  0.46014333    -0.88600
H2593       H  0.78807710  0.55311008  0.44974488     0.35500
H2594       H  0.81127377  0.56649806  0.47223772     0.40600
H2595       H  0.87419587  0.90864932  0.45508869     0.40300
H2596       H  0.89683611  0.92576316  0.47664095     0.35100
C2597       C  0.64826373  0.95032137  0.55167968    -0.26600
C2598       C  0.62871220  0.97977821  0.55214879    -0.14700
C2599       C  0.63529650  0.50853611  0.54142386     0.36000
C2600       C  0.66335313  0.50685105  0.52684693    -0.26000
C2601       C  0.68542613  0.97469936  0.52318125    -0.15300
C2602       C  0.67619741  0.94721347  0.53717866     0.37100
N2603       N  0.69460921  0.91602449  0.53731112    -0.89500
H2604       H  0.64239608  0.92969538  0.56307793     0.18200
H2605       H  0.66850597  0.52770367  0.51546873     0.18200
N2606       N  0.61289362  0.53670154  0.53985142    -0.88600
H2607       H  0.67768881  0.89706009  0.53247607     0.35500
H2608       H  0.71376636  0.91581484  0.52509259     0.40600
H2609       H  0.60334982  0.53772808  0.52325492     0.40300
H2610       H  0.62702287  0.55855792  0.54271710     0.35100
C2611       C  0.84926490  0.94783642  0.55289018    -0.26600
C2612       C  0.86659069  0.97808448  0.55729265    -0.14700
C2613       C  0.85598078  0.51156110  0.54472368     0.36000
C2614       C  0.82736570  0.51103356  0.53057670    -0.26000
C2615       C  0.81098804  0.97600263  0.52651442    -0.15300
C2616       C  0.82178331  0.94635628  0.53770730     0.37100
N2617       N  0.80541594  0.91438795  0.53430602    -0.89500
H2618       H  0.85661767  0.92498083  0.56155333     0.18200
H2619       H  0.81772827  0.53443047  0.52368487     0.18200
N2620       N  0.87230650  0.54298791  0.54943489    -0.88600
H2621       H  0.82341697  0.89802817  0.52745936     0.35500
H2622       H  0.78592216  0.91580922  0.52233583     0.40600
H2623       H  0.85451008  0.55901826  0.55685908     0.40300
H2624       H  0.87986635  0.55358689  0.53395817     0.35100
C2625       C  0.52295686  0.63771503  0.55717657    -0.26600
C2626       C  0.99730160  0.61632514  0.55290991    -0.14700
C2627       C  0.97434457  0.62103008  0.53460325     0.36000
C2628       C  0.97570603  0.65068043  0.52168198    -0.26000
C2629       C  0.00023302  0.67555587  0.52599104    -0.15300
C2630       C  0.52451672  0.66676745  0.54365328     0.37100
N2631       N  0.55116008  0.69068601  0.54731741    -0.89500
H2632       H  0.54145482  0.63457195  0.57066094     0.17800
H2633       H  0.95717586  0.65445141  0.50829933     0.18200
N2634       N  0.95025001  0.59583620  0.52809871    -0.88600
H2635       H  0.57432841  0.67835237  0.54524367     0.35500
H2636       H  0.54970076  0.69899012  0.56416263     0.40600
H2637       H  0.93233080  0.59309447  0.54097575     0.40300
H2638       H  0.96299426  0.57308681  0.52579204     0.35100
C2639       C  0.52965308  0.81361836  0.52924730    -0.26600
C2640       C  0.99597131  0.80058902  0.52811613    -0.14700
C2641       C  0.96812664  0.80755173  0.54249625     0.36000
C2642       C  0.96986605  0.83450094  0.55779296    -0.26000
C2643       C  0.99878643  0.85513089  0.55904321    -0.15300
C2644       C  0.53262276  0.84133491  0.54397384     0.37100
N2645       N  0.56464176  0.85828659  0.54612877    -0.89500
H2646       H  0.55173613  0.80466114  0.52015056     0.18200
H2647       H  0.94871830  0.83876136  0.56917557     0.18200
N2648       N  0.93764493  0.78791578  0.54176722    -0.88600
H2649       H  0.56167373  0.88247586  0.53946543     0.35500
H2650       H  0.58317315  0.84654180  0.53624177     0.40600
H2651       H  0.94318574  0.76317918  0.54633810     0.40300
H2652       H  0.92844983  0.78807290  0.52507438     0.35100
C2653       C  0.55362629  0.73216933  0.19671171    -0.26600
C2654       C  0.55455578  0.74715942  0.21823546    -0.14700
C2655       C  0.58314626  0.76641361  0.22457464     0.36000
C2656       C  0.61059065  0.76957955  0.20951863    -0.26000
C2657       C  0.61048001  0.75302961  0.18843571    -0.15300
C2658       C  0.58116294  0.73477412  0.18180596     0.37100
N2659       N  0.57828674  0.71900101  0.15998230    -0.89500
H2660       H  0.53176138  0.71729770  0.19177558     0.18200
H2661       H  0.63273335  0.78381184  0.21473030     0.18200
N2662       N  0.58543753  0.78184785  0.24652320    -0.88600
H2663       H  0.59587081  0.69954725  0.15889218     0.35500
H2664       H  0.58346501  0.73684408  0.14737783     0.40600
H2665       H  0.58336225  0.76307491  0.25890637     0.40300
H2666       H  0.56493506  0.79822297  0.24834087     0.35100
C2667       C  0.94033673  0.72752324  0.20074215    -0.26600
C2668       C  0.94238316  0.74866185  0.21976478    -0.14700
C2669       C  0.91764967  0.77361811  0.22289589     0.36000
C2670       C  0.89131223  0.77715521  0.20697940    -0.26000
C2671       C  0.88853326  0.75529085  0.18837338    -0.15300
C2672       C  0.91360685  0.73044368  0.18502101     0.37100
N2673       N  0.91185550  0.70825267  0.16575980    -0.89500
H2674       H  0.95937500  0.70822337  0.19843105     0.18200
H2675       H  0.87209098  0.79612505  0.20976688     0.18200
N2676       N  0.91802730  0.79417478  0.24282776    -0.88600
H2677       H  0.93196006  0.69116966  0.16603573     0.35500
H2678       H  0.91494293  0.72285254  0.15110023     0.40600
H2679       H  0.89549652  0.78987034  0.25173098     0.40300
H2680       H  0.91805088  0.81928698  0.23757379     0.35100
C2681       C  0.71976718  0.59243934  0.02818001    -0.26600
C2682       C  0.74771026  0.57069989  0.02810931    -0.14700
C2683       C  0.77620151  0.57846253  0.04150911     0.36000
C2684       C  0.77638013  0.60755783  0.05487075    -0.26000
C2685       C  0.74835855  0.62929673  0.05534811    -0.15300
C2686       C  0.71967920  0.62148351  0.04170884     0.37100
N2687       N  0.69040464  0.64269023  0.04089403    -0.89500
H2688       H  0.69779915  0.58662514  0.01779479     0.18200
H2689       H  0.79853108  0.61269064  0.06519667     0.18200
N2690       N  0.80532998  0.55703160  0.04124443    -0.88600
H2691       H  0.69810613  0.66698083  0.03645505     0.35500
H2692       H  0.67922587  0.64321486  0.05699134     0.40600
H2693       H  0.80994091  0.54897336  0.05790226     0.40300
H2694       H  0.82615819  0.57129463  0.03591811     0.35100
C2695       C  0.71849301  0.91096491  0.05287189    -0.26600
C2696       C  0.74821150  0.89253333  0.05709611    -0.14700
C2697       C  0.77803792  0.90123940  0.04515592     0.36000
C2698       C  0.77787909  0.92869447  0.03005603    -0.26000
C2699       C  0.74851412  0.94788449  0.02672999    -0.15300
C2700       C  0.71822014  0.93846564  0.03797226     0.37100
N2701       N  0.68691449  0.95652695  0.03512643    -0.89500
H2702       H  0.69525190  0.90478808  0.06171290     0.18200
H2703       H  0.80112595  0.93575961  0.02145305     0.18200
N2704       N  0.80863813  0.88253933  0.04839614    -0.88600
H2705       H  0.66913541  0.93981834  0.02828598     0.35500
H2706       H  0.68921606  0.97604254  0.02336052     0.40600
H2707       H  0.82740507  0.89908673  0.05414216     0.40300
H2708       H  0.81621263  0.87322935  0.03257300     0.35100
C2709       C  0.72293218  0.60848102  0.94681901    -0.26600
C2710       C  0.74899565  0.63223975  0.94995512    -0.14700
C2711       C  0.77230113  0.62718447  0.96801982     0.36000
C2712       C  0.77088438  0.59756960  0.98091719    -0.26000
C2713       C  0.74586964  0.57307454  0.97700964    -0.15300
C2714       C  0.72090462  0.57923245  0.96028331     0.37100
N2715       N  0.69362757  0.55569464  0.95701581    -0.89500
H2716       H  0.70431455  0.61240436  0.93351283     0.18200
H2717       H  0.78996609  0.59345547  0.99388406     0.18200
N2718       N  0.79691505  0.65197707  0.97434425    -0.88600
H2719       H  0.67741158  0.56383555  0.94405353     0.35500
H2720       H  0.67930785  0.55529827  0.97197821     0.40600
H2721       H  0.78472682  0.67508498  0.97636573     0.40300
H2722       H  0.81518448  0.65389093  0.96162975     0.35100
C2723       C  0.77484699  0.91615572  0.94440062    -0.26600
C2724       C  0.74595579  0.89538970  0.94405013    -0.14700
C2725       C  0.72009551  0.90120621  0.96038486     0.36000
C2726       C  0.72325201  0.92786601  0.97581429    -0.26000
C2727       C  0.75155359  0.94917549  0.97543482    -0.15300
C2728       C  0.77787683  0.94291251  0.95983583     0.37100
N2729       N  0.80739694  0.96417320  0.95955174    -0.89500
H2730       H  0.79504199  0.91192726  0.93226581     0.18200
H2731       H  0.70279921  0.93272378  0.98764144     0.18200
N2732       N  0.69049839  0.88056785  0.96207544    -0.88600
H2733       H  0.82437439  0.95642652  0.94696697     0.35500
H2734       H  0.81980327  0.96120007  0.97515810     0.40600
H2735       H  0.69785611  0.85536937  0.96279755     0.40300
H2736       H  0.67520656  0.88484893  0.94788636     0.35100
C2737       C  0.96787207  0.64063018  0.69396267    -0.26600
C2738       C  0.99585334  0.61943526  0.69104749    -0.14700
C2739       C  0.52325513  0.62375183  0.70478138     0.36000
C2740       C  0.52454101  0.65137348  0.71967541    -0.26000
C2741       C  0.99858126  0.67411324  0.72218084    -0.15300
C2742       C  0.96906524  0.66786862  0.70906805     0.37100
N2743       N  0.94028283  0.68965643  0.71067294    -0.89500
H2744       H  0.94516284  0.63685945  0.68389982     0.18200
H2745       H  0.54694143  0.65406566  0.72994980     0.18200
N2746       N  0.55068924  0.59999193  0.70427893    -0.88600
H2747       H  0.91932897  0.67522386  0.71555145     0.35500
H2748       H  0.93541375  0.69959205  0.69452052     0.40600
H2749       H  0.54121340  0.57690208  0.70995493     0.40300
H2750       H  0.56986076  0.60689866  0.71566282     0.35100
C2751       C  0.97323326  0.83586288  0.69606981    -0.26600
C2752       C  0.99960940  0.85920097  0.69917283    -0.14700
C2753       C  0.02310970  0.85377288  0.71711559     0.36000
C2754       C  0.52354736  0.82515900  0.72605160    -0.26000
C2755       C  0.99620471  0.79994385  0.72578737    -0.15300
C2756       C  0.97144461  0.80641419  0.70907538     0.37100
N2757       N  0.94452634  0.78288176  0.70513079    -0.89500
H2758       H  0.95443235  0.83978287  0.68287229     0.18200
H2759       H  0.54287821  0.82108505  0.73884415     0.18200
N2760       N  0.04913475  0.87755516  0.72260807    -0.88600
H2761       H  0.94563262  0.77528396  0.68812017     0.35500
H2762       H  0.92149602  0.79528855  0.70763389     0.40600
H2763       H  0.53906950  0.90230269  0.71917206     0.40300
H2764       H  0.56835866  0.87898756  0.70478933     0.35100
C2765       C  0.57601900  0.77476754  0.78271977    -0.26600
C2766       C  0.55675163  0.74505616  0.78276413    -0.14700
C2767       C  0.56436970  0.71990899  0.79886495     0.36000
C2768       C  0.59256198  0.72344640  0.81318481    -0.26000
C2769       C  0.61330853  0.75212005  0.81224115    -0.15300
C2770       C  0.60416392  0.77854574  0.79737366     0.37100
N2771       N  0.62394773  0.80873736  0.79654400    -0.89500
H2772       H  0.57011352  0.79451857  0.77069145     0.18200
H2773       H  0.59805321  0.70347918  0.82515051     0.18200
N2774       N  0.54327141  0.69069848  0.80083241    -0.88600
H2775       H  0.60795698  0.82894392  0.80018561     0.35500
H2776       H  0.63291998  0.81177763  0.77993203     0.40600
H2777       H  0.55836627  0.66949098  0.79821068     0.40300
H2778       H  0.53390995  0.68968585  0.81745829     0.35100
C2779       C  0.90811647  0.73401102  0.77720676    -0.26600
C2780       C  0.94126260  0.74391563  0.78325646    -0.14700
C2781       C  0.94629972  0.76010116  0.80437744     0.36000
C2782       C  0.91841567  0.76668706  0.81862356    -0.26000
C2783       C  0.88568768  0.75600877  0.81268262    -0.15300
C2784       C  0.88047622  0.73933868  0.79187106     0.37100
N2785       N  0.84715081  0.72761954  0.78583066    -0.89500
H2786       H  0.90367121  0.72191073  0.76097352     0.18200
H2787       H  0.92261130  0.77877976  0.83490647     0.18200
N2788       N  0.97977892  0.76820141  0.81207499    -0.88600
H2789       H  0.84761063  0.71541490  0.77008598     0.35500
H2790       H  0.83162126  0.74868617  0.78387075     0.40600
H2791       H  0.98074009  0.79399253  0.81538244     0.40300
H2792       H  0.98408917  0.75546696  0.82737765     0.35100
C2793       C  0.81279903  0.52957420  0.70379859    -0.26600
C2794       C  0.80527205  0.00267627  0.72041178    -0.14700
C2795       C  0.82209721  0.97148079  0.71942680     0.36000
C2796       C  0.85030126  0.96750514  0.70496548    -0.26000
C2797       C  0.86220227  0.99429959  0.69149828    -0.15300
C2798       C  0.83985860  0.52555336  0.68859868     0.37100
N2799       N  0.84793396  0.55241496  0.67326934    -0.89500
H2800       H  0.79890794  0.55304772  0.70376842     0.18200
H2801       H  0.86322839  0.94353464  0.70464058     0.18200
N2802       N  0.81148830  0.94417318  0.73362959    -0.88600
H2803       H  0.85347001  0.57381111  0.68290756     0.35500
H2804       H  0.82646472  0.55749349  0.66340037     0.40600
H2805       H  0.83195490  0.93718942  0.74390699     0.40300
H2806       H  0.80543489  0.92381850  0.72314135     0.35100
C2807       C  0.62871559  0.98865179  0.71348863    -0.26600
C2808       C  0.63425553  0.99439169  0.69025159    -0.14700
C2809       C  0.66737553  0.00248141  0.68255773     0.36000
C2810       C  0.69383160  0.00530454  0.69845795    -0.26000
C2811       C  0.68797967  0.00060109  0.72174443    -0.15300
C2812       C  0.65507413  0.99214560  0.72930226     0.37100
N2813       N  0.64770567  0.98735482  0.75295308    -0.89500
H2814       H  0.60346478  0.98248925  0.71947217     0.18200
H2815       H  0.71870856  0.50419282  0.69466228     0.18200
N2816       N  0.67368981  0.49962150  0.66150932    -0.88600
H2817       H  0.65282843  0.00970812  0.76161733     0.35500
H2818       H  0.66377412  0.96869669  0.75928315     0.40600
H2819       H  0.65395691  0.00507486  0.64854341     0.40300
H2820       H  0.69279263  0.99049368  0.65392737     0.35100
C2821       C  0.72215286  0.59328557  0.78615777    -0.26600
C2822       C  0.75060141  0.57267303  0.78226710    -0.14700
C2823       C  0.78088961  0.58024498  0.79427201     0.36000
C2824       C  0.78223279  0.60775122  0.80923141    -0.26000
C2825       C  0.75370163  0.62792337  0.81307241    -0.15300
C2826       C  0.72342836  0.62075591  0.80114400     0.37100
N2827       N  0.69380175  0.64124182  0.80435390    -0.89500
H2828       H  0.69817907  0.58803491  0.77819346     0.18200
H2829       H  0.80557684  0.61260371  0.81838433     0.18200
N2830       N  0.81032395  0.55954541  0.79171705    -0.88600
H2831       H  0.67333894  0.63214950  0.79483809     0.35500
H2832       H  0.69930879  0.66517675  0.79797597     0.40600
H2833       H  0.83029621  0.57471639  0.78607028     0.40300
H2834       H  0.81682648  0.54997424  0.80771147     0.35100
C2835       C  0.72866568  0.92121974  0.77432520    -0.26600
C2836       C  0.75228685  0.94683986  0.77865226    -0.14700
C2837       C  0.77823084  0.94134876  0.79479183     0.36000
C2838       C  0.77811625  0.91173933  0.80781887    -0.26000
C2839       C  0.75271703  0.88734116  0.80496430    -0.15300
C2840       C  0.72871093  0.89149113  0.78736597     0.37100
N2841       N  0.70451234  0.86554803  0.78262032    -0.89500
H2842       H  0.70936554  0.92479482  0.76141967     0.18200
H2843       H  0.79721517  0.90837785  0.82088622     0.18200
N2844       N  0.80428473  0.96621080  0.79811724    -0.88600
H2845       H  0.70771445  0.85806318  0.76570989     0.35500
H2846       H  0.68022601  0.87574435  0.78421135     0.40600
H2847       H  0.81791083  0.96823149  0.78292553     0.40300
H2848       H  0.82148710  0.95839032  0.81058413     0.35100
C2849       C  0.60106140  0.73676609  0.04994942    -0.26600
C2850       C  0.61836449  0.76632198  0.05597733    -0.14700
C2851       C  0.60743860  0.79744526  0.04690703     0.36000
C2852       C  0.57916503  0.79812536  0.03235426    -0.26000
C2853       C  0.56185493  0.76850534  0.02677441    -0.15300
C2854       C  0.57290950  0.73742317  0.03561404     0.37100
N2855       N  0.55568425  0.70619604  0.03109255    -0.89500
H2856       H  0.60862912  0.71274946  0.05689175     0.18200
H2857       H  0.57014214  0.82187172  0.02565315     0.18200
N2858       N  0.62457490  0.82819782  0.05271945    -0.88600
H2859       H  0.57269015  0.69050883  0.02259015     0.35500
H2860       H  0.53494692  0.70924617  0.02026434     0.40600
H2861       H  0.61264489  0.84878238  0.04509427     0.40300
H2862       H  0.64897274  0.82706159  0.04583061     0.35100
C2863       C  0.91964861  0.78957196  0.02752247    -0.26600
C2864       C  0.94020884  0.76088454  0.02730981    -0.14700
C2865       C  0.93169646  0.73341633  0.04127602     0.36000
C2866       C  0.90305982  0.73512359  0.05534776    -0.26000
C2867       C  0.88270030  0.76407760  0.05599179    -0.15300
C2868       C  0.89076568  0.79137296  0.04150990     0.37100
N2869       N  0.86966636  0.82073130  0.04090693    -0.89500
H2870       H  0.92653139  0.81091782  0.01705406     0.18200
H2871       H  0.89725819  0.71388619  0.06623142     0.18200
N2872       N  0.95228554  0.70380006  0.04130578    -0.88600
H2873       H  0.84600053  0.81339295  0.03457614     0.35500
H2874       H  0.87930525  0.83851848  0.02949812     0.40600
H2875       H  0.96111362  0.69990300  0.05788290     0.40300
H2876       H  0.93693559  0.68337261  0.03687812     0.35100
C2877       C  0.60014027  0.73472731  0.95180254    -0.26600
C2878       C  0.61847577  0.76401898  0.94636749    -0.14700
C2879       C  0.60943650  0.79454901  0.95694731     0.36000
C2880       C  0.58154153  0.79558830  0.97176774    -0.26000
C2881       C  0.56254802  0.76659302  0.97628207    -0.15300
C2882       C  0.57229270  0.73585800  0.96658277     0.37100
N2883       N  0.55353494  0.70584630  0.97145357    -0.89500
H2884       H  0.60659286  0.71092340  0.94407574     0.18200
H2885       H  0.57416143  0.81929582  0.97932175     0.18200
N2886       N  0.62846778  0.82457148  0.95276186    -0.88600
H2887       H  0.54438218  0.69618612  0.95608575     0.35500
H2888       H  0.57027394  0.68827126  0.97841432     0.40600
H2889       H  0.63742538  0.83338631  0.96840915     0.40300
H2890       H  0.61198265  0.84262065  0.94609301     0.35100
C2891       C  0.92744183  0.79669002  0.96978251    -0.26600
C2892       C  0.93960460  0.76525904  0.97654699    -0.14700
C2893       C  0.92218710  0.73599408  0.96989971     0.36000
C2894       C  0.89302378  0.73864929  0.95650757    -0.26000
C2895       C  0.88079517  0.77009193  0.94918410    -0.15300
C2896       C  0.89785104  0.79960837  0.95656511     0.37100
N2897       N  0.88553982  0.83240164  0.95068757    -0.89500
H2898       H  0.94112239  0.81907317  0.97494977     0.18200
H2899       H  0.88041247  0.71570237  0.95128155     0.18200
N2900       N  0.93425239  0.70323719  0.97590683    -0.88600
H2901       H  0.90205819  0.85110232  0.95651747     0.35500
H2902       H  0.86273582  0.83585699  0.95942487     0.40600
H2903       H  0.93526586  0.70154000  0.99363193     0.40300
H2904       H  0.95885144  0.70054735  0.96956389     0.35100
C2905       C  0.82361834  0.97322237  0.28338836    -0.26600
C2906       C  0.80198805  0.00092513  0.28566223    -0.14700
C2907       C  0.80780179  0.52779240  0.30305014     0.36000
C2908       C  0.83594846  0.02047156  0.31755892    -0.26000
C2909       C  0.85890233  0.99393180  0.31452963    -0.15300
C2910       C  0.85193035  0.96941083  0.29768725     0.37100
N2911       N  0.87395265  0.94139050  0.29395516    -0.89500
H2912       H  0.81950250  0.95544309  0.26969467     0.18200
H2913       H  0.84066119  0.54253614  0.33041591     0.18200
N2914       N  0.78652666  0.55696360  0.30496124    -0.88600
H2915       H  0.87446513  0.92673464  0.30871509     0.35500
H2916       H  0.89839136  0.95044248  0.29074731     0.40600
H2917       H  0.79462669  0.57233482  0.31833203     0.40300
H2918       H  0.76215180  0.54864667  0.30916047     0.35100
C2919       C  0.62643113  0.49873352  0.28778481    -0.26600
C2920       C  0.62978078  0.98431522  0.30659039    -0.14700
C2921       C  0.66218614  0.97121219  0.31139227     0.36000
C2922       C  0.68952071  0.97871656  0.29674038    -0.26000
C2923       C  0.68500127  0.99827319  0.27696854    -0.15300
C2924       C  0.65265514  0.50411760  0.27207688     0.37100
N2925       N  0.64490155  0.51431286  0.24918115    -0.89500
H2926       H  0.60038342  0.50357385  0.28289457     0.18200
H2927       H  0.71464016  0.97017940  0.30133308     0.18200
N2928       N  0.66747837  0.95129639  0.33150550    -0.88600
H2929       H  0.61871455  0.51667116  0.24692524     0.35500
H2930       H  0.65285015  0.49509302  0.23831789     0.40600
H2931       H  0.66332395  0.96672197  0.34561489     0.40300
H2932       H  0.69267185  0.94329925  0.33248788     0.35100
C2933       C  0.77170241  0.60098872  0.22508112    -0.26600
C2934       C  0.74774390  0.57475204  0.22277662    -0.14700
C2935       C  0.72256763  0.57810662  0.20567513     0.36000
C2936       C  0.72314992  0.60562188  0.19069870    -0.26000
C2937       C  0.74842429  0.63030400  0.19223111    -0.15300
C2938       C  0.77215718  0.62863033  0.21011314     0.37100
N2939       N  0.79645730  0.65523806  0.21320094    -0.89500
H2940       H  0.79041282  0.60064806  0.23838741     0.18200
H2941       H  0.70429575  0.60703364  0.17729930     0.18200
N2942       N  0.69659861  0.55313815  0.20313381    -0.88600
H2943       H  0.81224345  0.65031462  0.22711099     0.35500
H2944       H  0.78299383  0.67707270  0.21714471     0.40600
H2945       H  0.69808989  0.54337152  0.18665550     0.40300
H2946       H  0.67307997  0.56491527  0.20489405     0.35100
C2947       C  0.72919528  0.92359175  0.22713985    -0.26600
C2948       C  0.75376826  0.94821034  0.22263141    -0.14700
C2949       C  0.77831335  0.94207345  0.20574658     0.36000
C2950       C  0.77662507  0.91265025  0.19273546    -0.26000
C2951       C  0.75066542  0.88895442  0.19604335    -0.15300
C2952       C  0.72724570  0.89417391  0.21402708     0.37100
N2953       N  0.70172595  0.86999693  0.21979545    -0.89500
H2954       H  0.71051539  0.92783359  0.24033676     0.18200
H2955       H  0.79529952  0.90889948  0.17947306     0.18200
N2956       N  0.80514768  0.96567720  0.20178725    -0.88600
H2957       H  0.71315791  0.84649934  0.22178706     0.35500
H2958       H  0.68387224  0.86886747  0.20673668     0.40600
H2959       H  0.80391258  0.97333251  0.18477773     0.40300
H2960       H  0.82821921  0.95330312  0.20425451     0.35100
loop_ 
_geom_bond_atom_site_label_1 
_geom_bond_atom_site_label_2 
_geom_bond_distance 
_geom_bond_site_symmetry_2 
_ccdc_geom_bond_type 
C1            C2   1.532       .  S
C1            C7   1.532       .  S
C1            C5   1.540       .  S
C1          C714   1.530       .  S
C2            H9   1.085       .  S
C2          C743   1.366       .  D
C3            C4   1.551       .  S
C3          C742   1.371       .  D
C3          C703   1.499       .  S
C4            C8   1.541       .  S
C4            C6   1.546       .  S
C4           H10   1.110       .  S
C5           H11   1.082       .  S
C5          C746   1.365       .  D
C6          C745   1.365       .  D
C6          C686   1.490       .  S
C7          H752   1.087       .  S
C7          C748   1.364   1_545  D
C8          C747   1.364       .  D
C8          C728   1.486       .  S
H12         C747   1.086       .  S
C13          C14   1.411   1_554  A
C13        C1498   1.402       .  A
C13         C644   1.478       .  S
C14        C1495   1.402       .  A
C14         C672   1.478       .  S
C15          C16   1.398       .  A
C15        C1494   1.405   1_455  A
C15          H20   1.084       .  S
C16          C17   1.405   1_556  A
C16         C661   1.478       .  S
C17          C18   1.400       .  A
C17         C633   1.472       .  S
C18        C1493   1.402   1_455  A
C18          H19   1.085       .  S
C21          C22   1.538       .  S
C21          C25   1.536       .  S
C21         C767   1.540       .  S
C21         C602   1.542       .  S
C22          H29   1.081       .  S
C22         C763   1.368       .  D
C23          C24   1.545       .  S
C23         C762   1.369       .  D
C23         C574   1.495       .  S
C24          C28   1.537       .  S
C24          C26   1.540       .  S
C24          H30   1.110       .  S
C25          H31   1.086       .  S
C25         C766   1.366       .  D
C26         C765   1.364       .  D
C26         C591   1.478       .  S
C27         C761   1.532       .  S
C27          H32   1.087       .  S
C27          C28   1.362       .  D
C28         C616   1.477       .  S
C33          C34   1.537       .  S
C33          C39   1.529       .  S
C33        C1517   1.542   1_455  S
C33        C2001   1.541       .  S
C34          H41   1.080       .  S
C34          C35   1.365       .  D
C35          C36   1.543       .  S
C35         C546   1.486       .  S
C36          C40   1.546       .  S
C36        C1518   1.546   1_455  S
C36          H42   1.110       .  S
C37        C1513   1.540       .  S
C37          H43   1.086       .  S
C37          C38   1.373       .  D
C38        C1516   1.549       .  S
C38         C560   1.502       .  S
C39          H44   1.086       .  S
C39          C40   1.365       .  D
C40        C2015   1.487   1_455  S
C45          C46   1.412   1_554  A
C45         C790   1.403       .  A
C45         C479   1.483       .  S
C46         C787   1.406       .  A
C46         C507   1.490       .  S
C47          C48   1.408       .  A
C47         C786   1.405   1_545  A
C47          H52   1.084       .  S
C48          C49   1.419   1_556  A
C48         C493   1.495       .  S
C49          C50   1.406       .  A
C49         C462   1.488       .  S
C50         C785   1.404   1_545  A
C50          H51   1.085       .  S
C53          C90   1.462       .  S
C53         C675   1.483       .  S
C53          N71   1.354       .  A
N54          N71   1.323       .  A
N54          N76   1.318       .  A
N54         Co91   2.092       .  S
C55          C93   1.465       .  S
C55         H100   1.081       .  S
C55          N80   1.342       .  A
H56          C97   1.077       .  S
C57          C61   1.460       .  S
C57          H86   1.081       .  S
C57          N81   1.338       .  A
Co58         N76   2.068       .  S
Co58         N66   2.098       .  S
Co58         N98   2.101       .  S
Co58         N74   2.080       .  S
Co58       Cl102   2.456       .  S
N59          C97   1.339       .  A
N59          N66   1.318       .  A
N59         Co60   2.080       .  S
Co60         N63   2.093       .  S
Co60         N80   2.092       .  S
Co60         N67   2.080       .  S
Co60       Cl102   2.455       .  S
C61         C658   1.484       .  S
C61          N99   1.354       .  A
N62          N69   1.318       .  A
N62          N92   1.326       .  A
N62         Co95   2.089       .  S
N63          N81   1.319       .  A
N63          N99   1.326       .  A
N64          C93   1.350       .  A
N64          N74   1.322       .  A
H65          C90   1.080       .  S
N66          N87   1.326       .  A
N67          N85   1.320       .  A
N67          N72   1.326       .  A
C68          C96   1.463       .  S
C68         C549   1.482       .  S
C68          N72   1.351       .  A
N69          C84   1.341       .  A
N69         Co91   2.089       .  S
C70          C73   1.464       .  S
C70         H104   1.081       .  S
C70          N98   1.346       .  A
C73         C563   1.480       .  S
C73          N94   1.348       .  A
N74          N80   1.320       .  A
N75         C101   1.343       .  A
N75          N77   1.320       .  A
N75         Co91   2.090       .  S
N76          C90   1.338       .  A
N77         N105   1.324       .  A
N77         Co95   2.085       .  S
H78         C101   1.082       .  S
H79          C96   1.081       .  S
N81         Co95   2.076       .  S
N82          N94   1.325       .  A
N82          N98   1.321       .  A
N82         Co91   2.089       .  S
C83          C97   1.466       .  S
C83         C504   1.493       .  S
C83          N87   1.356       .  A
C84         C103   1.467       .  S
C84          H88   1.079       .  S
N85          C96   1.336       .  A
N85         Co95   2.085       .  S
C89         C101   1.463       .  S
C89         C605   1.483       .  S
C89         N105   1.350       .  A
Co91       Cl102   2.447       .  S
N92         C103   1.354       .  A
C93         C619   1.482       .  S
Co95       Cl102   2.448       .  S
C103        C490   1.492       .  S
C106        C143   1.467       .  S
C106        C731   1.486       .  S
C106        N124   1.352       .  A
N107        N124   1.323       .  A
N107        N129   1.320       .  A
N107       Co144   2.091       .  S
C108        C146   1.461       .  S
C108        H153   1.081       .  S
C108        N133   1.337       .  A
H109        C150   1.078       .  S
C110        C114   1.462       .  S
C110        H139   1.080       .  S
C110        N134   1.337       .  A
Co111       N129   2.087       .  S
Co111       N119   2.094       .  S
Co111       N151   2.085       .  S
Co111       N127   2.083       .  S
Co111      Cl155   2.460       .  S
N112        C150   1.338       .  A
N112        N119   1.319       .  A
N112       Co113   2.087       .  S
Co113       N116   2.079       .  S
Co113       N133   2.074       .  S
Co113       N120   2.088       .  S
Co113      Cl155   2.441       .  S
C114        C717   1.479       .  S
C114        N152   1.351       .  A
N115        N122   1.320       .  A
N115        N145   1.324       .  A
N115       Co148   2.085       .  S
N116        N134   1.319       .  A
N116        N152   1.322       .  A
N117        C146   1.350       .  A
N117        N127   1.323       .  A
H118        C143   1.080       .  S
N119        N140   1.328       .  A
N120        N138   1.318       .  A
N120        N125   1.325       .  A
C121        C149   1.464       .  S
C121        C465   1.485       .  S
C121        N125   1.351       .  A
N122        C137   1.344       .  A
N122       Co144   2.087       .  S
C123        C126   1.463       .  S
C123        H157   1.081       .  S
C123        N151   1.341       .  A
C126        C476   1.486       .  S
C126        N147   1.352       .  A
N127        N133   1.319       .  A
N128        C154   1.340       .  A
N128        N130   1.318       .  A
N128       Co144   2.089       .  S
N129        C143   1.343       .  A
N130        N158   1.324       .  A
N130       Co148   2.083       .  S
H131        C154   1.079       .  S
H132        C149   1.082       .  S
N134       Co148   2.075       .  S
N135        N147   1.325       .  A
N135        N151   1.319       .  A
N135       Co144   2.087       .  S
C136        C150   1.465       .  S
C136        C437   1.493       .  S
C136        N140   1.355       .  A
C137        C156   1.460       .  S
C137        H141   1.081       .  S
N138        C149   1.341       .  A
N138       Co148   2.083       .  S
C142        C154   1.468       .  S
C142        C647   1.491       .  S
C142        N158   1.353       .  A
Co144      Cl155   2.444       .  S
N145        C156   1.349       .  A
C146        C630   1.476       .  S
Co148      Cl155   2.455       .  S
C156        C451   1.473       .  S
C159        C588   1.468       .  S
C159        C936   1.458       .  S
C159        N177   1.347       .  A
N160        N177   1.324       .  A
N160        N922   1.320       .  A
N160       Co197   2.076       .  S
C161        C199   1.463       .  S
C161        H206   1.077       .  S
C161        N186   1.336       .  A
H162        C203   1.082       .  S
C163        C167   1.473       .  S
C163        H192   1.081       .  S
C163        N187   1.349       .  A
Co164       N182   2.091       .  S
Co164       N172   2.089       .  S
Co164       N204   2.081       .  S
Co164       N180   2.092       .  S
Co164     Cl2428   2.450   1_445  S
N165        C203   1.340       .  A
N165       N1652   1.320       .  A
N165       Co166   2.080       .  S
Co166       N169   2.071       .  S
Co166       N186   2.068       .  S
Co166       N173   2.079   1_545  S
Co166      Cl948   2.440   1_545  S
C167        C577   1.497       .  S
C167        N945   1.348       .  A
N168        N198   1.323       .  A
N168       N1655   1.320       .  A
N168       Co201   2.085       .  S
N169        N205   1.319       .  A
N169        N927   1.318   1_545  A
N170       C1679   1.354   1_455  A
N170        N180   1.325       .  A
H171        C196   1.081       .  S
N172        N193   1.325       .  A
N172       N1645   1.320   1_455  A
N173        N178   1.321   1_565  A
N173        N931   1.318       .  A
C174        C202   1.463       .  S
C174        C392   1.485       .  S
C174        N918   1.352       .  A
N175        C190   1.341       .  A
N175       N1648   1.320   1_455  A
N175       Co197   2.088       .  S
C176        C919   1.463   1_545  S
C176        H210   1.080       .  S
C176        N204   1.338       .  A
N178        C914   1.350   1_545  A
C179        C378   1.488       .  S
C179        C916   1.463       .  S
C179        N200   1.355       .  A
N180       N1666   1.317   1_455  A
N181        C207   1.336       .  A
N181       N1663   1.317   1_455  A
N181       Co197   2.070       .  S
N182        C196   1.342       .  A
N182        N900   1.321   1_545  A
N183        N211   1.328       .  A
N183       N1661   1.320       .  A
N183       Co201   2.103       .  S
H184        C207   1.078       .  S
H185        C202   1.081       .  S
N186       N1660   1.316       .  A
N187        N909   1.319       .  A
N187       Co201   2.105       .  S
N188        N200   1.326       .  A
N188        N944   1.318       .  A
N188       Co197   2.095       .  S
C189        C203   1.459       .  S
C189        C518   1.480       .  S
C189       N1673   1.352       .  A
C190       C1689   1.464   1_455  S
C190        H194   1.080       .  S
N191        C202   1.341       .  A
N191        N913   1.320       .  A
N191       Co201   2.081       .  S
N193       C1669   1.352   1_455  A
C195        C423   1.493       .  S
C195       C1687   1.465       .  S
C195        N211   1.355       .  A
C196        C899   1.458   1_545  S
Co197     Cl1688   2.448   1_455  S
N198        C209   1.352       .  A
C199        C406   1.485       .  S
C199       N1650   1.354       .  A
Co201      Cl208   2.459       .  S
N204        N928   1.319   1_545  A
N205        C907   1.347   1_545  A
C207       C1675   1.464       .  S
Cl208     Co2384   2.452       .  S
Cl208      Co906   2.447       .  S
Cl208     Co1677   2.454       .  S
C209        C532   1.481       .  S
C209       C1670   1.466       .  S
C212        C308   1.489       .  S
C212       C1729   1.466       .  S
C212        N230   1.354       .  A
N213        N230   1.326       .  A
N213       N1715   1.319       .  A
N213       Co250   2.094       .  S
C214        C252   1.463       .  S
C214        H259   1.081       .  S
C214        N239   1.338       .  A
H215        C256   1.081       .  S
C216        C220   1.466       .  S
C216        H245   1.079       .  S
C216        N240   1.340       .  A
Co217       N235   2.076       .  S
Co217       N225   2.070       .  S
Co217       N257   2.069       .  S
Co217       N233   2.079       .  S
Co217     Cl2481   2.445   1_445  S
N218        C256   1.344       .  A
N218        N965   1.320       .  A
N218       Co219   2.093       .  S
Co219       N222   2.080       .  S
Co219       N239   2.075       .  S
Co219       N226   2.099       .  S
Co219     Cl1741   2.453   1_455  S
C220        C294   1.480       .  S
C220       N1738   1.350       .  A
N221        N251   1.329       .  A
N221        N968   1.320       .  A
N221       Co254   2.097       .  S
N222        N258   1.321       .  A
N222       N1720   1.320   1_455  A
N223        C992   1.350   1_545  A
N223        N233   1.321       .  A
H224        C249   1.079       .  S
N225        N246   1.322       .  A
N225        N958   1.319   1_545  A
N226        N231   1.327       .  A
N226       N1724   1.319   1_455  A
C227        C255   1.468       .  S
C227        C336   1.493       .  S
C227       N1711   1.349       .  A
N228        C243   1.339       .  A
N228        N961   1.320   1_545  A
N228       Co250   2.088       .  S
C229       C1712   1.464       .  S
C229        H263   1.078       .  S
C229        N257   1.339       .  A
N231       C1707   1.354   1_455  A
C232        C322   1.497       .  S
C232       C1709   1.468       .  S
C232        N253   1.355       .  A
N233        N979   1.318   1_545  A
N234        C260   1.341       .  A
N234        N976   1.321   1_545  A
N234       Co250   2.084       .  S
N235        C249   1.338       .  A
N235       N1693   1.318   1_455  A
N236        N264   1.326       .  A
N236        N974   1.320       .  A
N236       Co254   2.088       .  S
H237        C260   1.081       .  S
H238        C255   1.081       .  S
N239        N973   1.319       .  A
N240       N1702   1.320       .  A
N240       Co254   2.088       .  S
N241        N253   1.327       .  A
N241       N1737   1.318       .  A
N241       Co250   2.097       .  S
C242        C256   1.462       .  S
C242        C700   1.474       .  S
C242        N986   1.347       .  A
C243       C1002   1.462   1_545  S
C243        H247   1.082       .  S
N244        C255   1.343       .  A
N244       N1706   1.317       .  A
N244       Co254   2.089       .  S
N246        C982   1.345   1_545  A
C248        C364   1.483       .  S
C248       C1000   1.462       .  S
C248        N264   1.352       .  A
C249       C1692   1.461       .  S
Co250     Cl1001   2.453   1_545  S
N251        C262   1.355       .  A
C252        C350   1.480       .  S
C252        N963   1.351       .  A
Co254      Cl261   2.458       .  S
N257       N1721   1.316   1_455  A
N258       C1700   1.349   1_455  A
C260        C988   1.465   1_545  S
Cl261     Co2437   2.449       .  S
Cl261     Co1699   2.448       .  S
Cl261      Co990   2.443       .  S
C262        C689   1.492       .  S
C262        C983   1.463       .  S
C265        C266   1.414       .  A
C265        C270   1.403       .  A
C265        C420   1.496       .  S
C266       C1747   1.409       .  A
C266        C339   1.479       .  S
C267       C1746   1.404       .  A
C267       C1748   1.406       .  A
C267        H272   1.085       .  S
C268        C269   1.417       .  A
C268       C1747   1.407       .  A
C268        C325   1.502       .  S
C269        C270   1.407       .  A
C269        C409   1.482       .  S
C270        H271   1.084       .  S
C273        C274   1.412       .  A
C273        C278   1.402       .  A
C273        C367   1.484       .  S
C274        C275   1.403       .  A
C274        C395   1.480       .  S
C275        C276   1.402       .  A
C275        H280   1.085       .  S
C276        C277   1.413       .  A
C276        C381   1.487       .  S
C277        C278   1.402       .  A
C277        C353   1.479       .  S
C278        H279   1.085       .  S
C281        C285   1.544   1_655  S
C281       C1762   1.531       .  S
C281       C1767   1.534   1_655  S
C281       C1791   1.532       .  S
C282       C1761   1.538       .  S
C282        H289   1.086       .  S
C282        C283   1.366       .  D
C283       C1764   1.538       .  S
C283        C448   1.479       .  S
C284        C288   1.544   1_655  S
C284        C286   1.544   1_655  S
C284       C1763   1.542       .  S
C284        H290   1.111       .  S
C285        H291   1.082       .  S
C285        C286   1.367       .  D
C286        C434   1.491       .  S
C287       C1761   1.535       .  S
C287        H292   1.086       .  S
C287       C1768   1.365       .  D
C288       C1767   1.365       .  D
C288       C1777   1.486       .  S
C293        C298   1.401       .  A
C293       C1774   1.404   1_455  A
C293        H300   1.084       .  S
C294        C295   1.416       .  A
C294       C1773   1.405       .  A
C295        C296   1.400       .  A
C295        N302   1.432       .  S
C296        C297   1.401       .  A
C296        H301   1.083       .  S
C297       C1768   1.479       .  S
C297       C1778   1.410       .  A
C298       C1777   1.412       .  A
C298        N299   1.439       .  S
N299        H303   1.046       .  S
N299        H304   1.045       .  S
N302        H305   1.045       .  S
N302        H306   1.042       .  S
C307        C308   1.404       .  A
C307        C312   1.406       .  A
C307        H314   1.084       .  S
C308       C1789   1.415       .  A
C309        C310   1.399       .  A
C309       C1788   1.413   1_455  A
C309        N316   1.433       .  S
C310       C1791   1.411   1_455  A
C310        H315   1.077       .  S
C311       C1761   1.541       .  S
C311        C312   1.417       .  A
C311       C1790   1.411       .  A
C312        N313   1.433       .  S
N313        H317   1.046       .  S
N313        H318   1.046       .  S
N316        H319   1.046       .  S
N316        H320   1.042       .  S
C321        C322   1.406       .  A
C321        C326   1.407       .  A
C321        H328   1.084       .  S
C322       C1803   1.421       .  A
C323        C324   1.402       .  A
C323       C1802   1.422       .  A
C323        N330   1.431       .  S
C324       C1805   1.402       .  A
C324        H329   1.084       .  S
C325        C326   1.410       .  A
C325       C1804   1.406       .  A
C326        N327   1.432       .  S
N327        H331   1.046       .  S
N327        H332   1.045       .  S
N330        H333   1.042       .  S
N330        H334   1.045       .  S
C335        C336   1.409       .  A
C335        C340   1.405       .  A
C335        H342   1.082       .  S
C336       C1817   1.423       .  A
C337        C338   1.404       .  A
C337       C1816   1.418   1_455  A
C337        N344   1.431       .  S
C338       C1819   1.403   1_455  A
C338        H343   1.082       .  S
C339        C340   1.403       .  A
C339       C1818   1.398       .  A
C340        N341   1.431       .  S
N341        H345   1.045       .  S
N341        H346   1.046       .  S
N344        H347   1.045       .  S
N344        H348   1.044       .  S
C349        C350   1.405       .  A
C349        C354   1.400       .  A
C349       H1096   1.084       .  S
C350        C351   1.414       .  A
C351        C352   1.403       .  A
C351        N358   1.436       .  S
C352        C353   1.401       .  A
C352        H357   1.084       .  S
C353        C354   1.406       .  A
C354       N1095   1.433       .  S
N355       C1094   1.433       .  S
N355       H1099   1.046       .  S
N355       H1100   1.046       .  S
H356       C1089   1.084       .  S
N358        H361   1.045       .  S
N358        H362   1.046       .  S
H359       N1095   1.046       .  S
H360       N1095   1.046       .  S
C363        C368   1.405       .  A
C363       C1104   1.409   1_545  A
C363        H370   1.082       .  S
C364        C365   1.415       .  A
C364       C1103   1.405       .  A
C365        C366   1.410       .  A
C365        N372   1.438       .  S
C366        C367   1.404       .  A
C366        H371   1.084       .  S
C367       C1108   1.406       .  A
C368       C1107   1.405   1_545  A
C368        N369   1.432       .  S
N369        H373   1.045       .  S
N369        H374   1.046       .  S
N372        H375   1.046       .  S
N372        H376   1.046       .  S
C377        C378   1.405       .  A
C377        C382   1.403       .  A
C377        H384   1.084       .  S
C378       C1119   1.413       .  A
C379        C380   1.404       .  A
C379       C1118   1.414   1_545  A
C379        N386   1.432       .  S
C380       C1121   1.403   1_545  A
C380        H385   1.084       .  S
C381        C382   1.417       .  A
C381       C1120   1.402       .  A
C382        N383   1.439       .  S
N383        H387   1.046       .  S
N383        H388   1.043       .  S
N386        H389   1.046       .  S
N386        H390   1.046       .  S
C391        C392   1.406       .  A
C391        C396   1.403       .  A
C391        H398   1.082       .  S
C392       C1133   1.411       .  A
C393        C394   1.400       .  A
C393       C1132   1.414   1_545  A
C393        N400   1.438       .  S
C394       C1135   1.399   1_545  A
C394        H399   1.082       .  S
C395        C396   1.416       .  A
C395       C1134   1.400       .  A
C396        N397   1.440       .  S
N397        H401   1.046       .  S
N397        H402   1.043       .  S
N400        H403   1.046       .  S
N400        H404   1.046       .  S
C405        C410   1.404       .  A
C405       C1886   1.406   1_455  A
C405        H412   1.084       .  S
C406        C407   1.419       .  A
C406       C1885   1.407       .  A
C407        C408   1.397       .  A
C407        N414   1.431       .  S
C408        C409   1.400       .  A
C408        H413   1.084       .  S
C409       C1890   1.409       .  A
C410       C1889   1.409       .  A
C410        N411   1.432       .  S
N411        H415   1.046       .  S
N411        H416   1.046       .  S
N414        H417   1.042       .  S
N414        H418   1.045       .  S
C419        C424   1.403       .  A
C419       C1900   1.398   1_455  A
C419        H426   1.084       .  S
C420        C421   1.417       .  A
C420       C1899   1.405       .  A
C421        C422   1.403       .  A
C421        N428   1.433       .  S
C422        C423   1.404       .  A
C422        H427   1.084       .  S
C423       C1904   1.414       .  A
C424       C1903   1.419       .  A
C424        N425   1.430       .  S
N425        H429   1.046       .  S
N425        H430   1.046       .  S
N428        H431   1.043       .  S
N428        H432   1.045       .  S
C433        C434   1.401       .  A
C433        C438   1.397       .  A
C433        H440   1.085       .  S
C434        C435   1.420       .  A
C435        C436   1.410       .  A
C435        N442   1.437       .  S
C436        C437   1.407       .  A
C436        H441   1.084       .  S
C437        C438   1.419       .  A
C438        N439   1.431       .  S
N439        H443   1.042       .  S
N439        H444   1.045       .  S
N442        H445   1.040       .  S
N442        H446   1.045       .  S
C447        C448   1.401       .  A
C447        C452   1.406       .  A
C447        H454   1.084       .  S
C448        C449   1.414       .  A
C449        C450   1.402       .  A
C449        N456   1.433       .  S
C450        C451   1.401       .  A
C450        H455   1.084       .  S
C451        C452   1.410       .  A
C452        N453   1.437       .  S
N453        H457   1.046       .  S
N453        H458   1.046       .  S
N456        H459   1.045       .  S
N456        H460   1.045       .  S
C461        C462   1.403       .  A
C461        C466   1.403       .  A
C461        H468   1.084       .  S
C462        C463   1.409       .  A
C463        C464   1.403       .  A
C463        N470   1.433       .  S
C464        C465   1.405       .  A
C464        H469   1.083       .  S
C465        C466   1.417       .  A
C466        N467   1.432       .  S
N467        H471   1.045       .  S
N467        H472   1.044       .  S
N470        H473   1.046       .  S
N470        H474   1.046       .  S
C475        C476   1.405       .  A
C475        C480   1.402       .  A
C475        H482   1.083       .  S
C476        C477   1.411       .  A
C477        C478   1.404       .  A
C477        N484   1.431       .  S
C478        C479   1.401       .  A
C478        H483   1.084       .  S
C479        C480   1.417       .  A
C480        N481   1.439       .  S
N481        H485   1.046       .  S
N481        H486   1.043       .  S
N484        H487   1.046       .  S
N484        H488   1.045       .  S
C489        C490   1.406       .  A
C489        C494   1.408       .  A
C489        H496   1.083       .  S
C490        C491   1.418       .  A
C491        C492   1.403       .  A
C491        N498   1.431       .  S
C492        C493   1.404       .  A
C492        H497   1.083       .  S
C493        C494   1.413       .  A
C494        N495   1.438       .  S
N495        H499   1.046       .  S
N495        H500   1.046       .  S
N498        H501   1.046       .  S
N498        H502   1.042       .  S
C503        C504   1.407       .  A
C503        C508   1.406       .  A
C503        H510   1.083       .  S
C504        C505   1.422       .  A
C505        C506   1.401       .  A
C505        N512   1.430       .  S
C506        C507   1.401       .  A
C506        H511   1.083       .  S
C507        C508   1.410       .  A
C508        N509   1.438       .  S
N509        H513   1.045       .  S
N509        H514   1.046       .  S
N512        H515   1.045       .  S
N512        H516   1.042       .  S
C517        C518   1.401       .  A
C517        C522   1.404       .  A
C517        H524   1.083       .  S
C518       C1999   1.407       .  A
C519        C520   1.408       .  A
C519       C1998   1.410   1_455  A
C519        N526   1.439       .  S
C520       C2001   1.415       .  A
C520        H525   1.074       .  S
C521       C1513   1.541       .  S
C521        C522   1.419       .  A
C521       C2000   1.413       .  A
C522        N523   1.433       .  S
N523        H527   1.046       .  S
N523        H528   1.046       .  S
N526        H529   1.046       .  S
N526        H530   1.045       .  S
C531        C532   1.403       .  A
C531        C536   1.399       .  A
C531        H538   1.084       .  S
C532        C533   1.416       .  A
C533       C2014   1.404       .  A
C533        N540   1.432       .  S
C534       C2013   1.405       .  A
C534       C2015   1.402   1_455  A
C534        H539   1.083       .  S
C535       C1520   1.485       .  S
C535        C536   1.410       .  A
C535       C2014   1.402       .  A
C536        N537   1.433       .  S
N537        H541   1.046       .  S
N537        H542   1.046       .  S
N540       H2023   1.046       .  S
N540       H2024   1.042       .  S
H543       N2020   1.045       .  S
H544       N2020   1.042       .  S
C545        C546   1.404       .  A
C545        C550   1.411       .  A
C545        H552   1.082       .  S
C546        C547   1.410       .  A
C547        C548   1.395       .  A
C547        N554   1.433       .  S
C548        C549   1.401       .  A
C548        H553   1.082       .  S
C549        C550   1.413       .  A
C550        N551   1.432       .  S
N551        H555   1.046       .  S
N551        H556   1.046       .  S
N554        H557   1.046       .  S
N554        H558   1.045       .  S
C559        C560   1.411       .  A
C559        C564   1.409       .  A
C559        H566   1.083       .  S
C560        C561   1.414       .  A
C561        C562   1.408       .  A
C561        N568   1.431       .  S
C562        C563   1.401       .  A
C562        H567   1.084       .  S
C563        C564   1.408       .  A
C564        N565   1.438       .  S
N565        H569   1.046       .  S
N565        H570   1.046       .  S
N568        H571   1.046       .  S
N568        H572   1.046       .  S
C573        C578   1.397       .  A
C573       C1314   1.403       .  A
C573        H580   1.084       .  S
C574        C575   1.411       .  A
C574       C1313   1.402       .  A
C575        C576   1.411       .  A
C575        N582   1.432       .  S
C576        C577   1.407       .  A
C576        H581   1.083       .  S
C577       C1318   1.420       .  A
C578       C1317   1.414   1_545  A
C578        N579   1.433       .  S
N579        H583   1.046       .  S
N579        H584   1.046       .  S
N582        H585   1.045       .  S
N582        H586   1.045       .  S
C587        C588   1.399       .  A
C587        C592   1.398       .  A
C587        H594   1.084       .  S
C588        C589   1.417       .  A
C589        C590   1.403       .  A
C589       N1336   1.439       .  S
C590        C591   1.401       .  A
C590       H1335   1.084       .  S
C591        C592   1.414       .  A
C592        N593   1.433       .  S
N593        H597   1.044       .  S
N593        H598   1.045       .  S
H595       C1330   1.084       .  S
N596       C1329   1.439       .  S
N596       H1339   1.043       .  S
N596       H1340   1.045       .  S
H599       N1336   1.043       .  S
H600       N1336   1.046       .  S
C601        C602   1.411       .  A
C601        C606   1.408       .  A
C601        H608   1.083       .  S
C602        C603   1.422       .  A
C603        C604   1.406       .  A
C603        N610   1.431       .  S
C604        C605   1.399       .  A
C604        H609   1.084       .  S
C605        C606   1.411       .  A
C606        N607   1.438       .  S
N607        H611   1.046       .  S
N607        H612   1.045       .  S
N610        H613   1.046       .  S
N610        H614   1.046       .  S
C615        C616   1.402       .  A
C615        C620   1.405       .  A
C615        H622   1.084       .  S
C616        C617   1.417       .  A
C617        C618   1.399       .  A
C617        N624   1.440       .  S
C618        C619   1.404       .  A
C618        H623   1.084       .  S
C619        C620   1.410       .  A
C620        N621   1.432       .  S
N621        H625   1.046       .  S
N621        H626   1.046       .  S
N624        H627   1.043       .  S
N624        H628   1.046       .  S
C629        C630   1.404       .  A
C629        C634   1.396       .  A
C629        H636   1.082       .  S
C630        C631   1.412       .  A
C631        C632   1.404       .  A
C631        N638   1.438       .  S
C632        C633   1.401       .  A
C632        H637   1.083       .  S
C633        C634   1.413       .  A
C634        N635   1.440       .  S
N635        H639   1.046       .  S
N635        H640   1.043       .  S
N638        H641   1.046       .  S
N638        H642   1.046       .  S
C643        C644   1.398       .  A
C643        C648   1.402       .  A
C643        H650   1.083       .  S
C644        C645   1.407       .  A
C645        C646   1.407       .  A
C645        N652   1.438       .  S
C646        C647   1.408       .  A
C646        H651   1.083       .  S
C647        C648   1.415       .  A
C648        N649   1.429       .  S
N649        H653   1.045       .  S
N649        H654   1.046       .  S
N652        H655   1.045       .  S
N652        H656   1.045       .  S
C657        C658   1.408       .  A
C657        C662   1.402       .  A
C657        H664   1.082       .  S
C658        C659   1.411       .  A
C659        C660   1.403       .  A
C659        N666   1.432       .  S
C660        C661   1.400       .  A
C660        H665   1.083       .  S
C661        C662   1.404       .  A
C662        N663   1.432       .  S
N663        H667   1.045       .  S
N663        H668   1.046       .  S
N666        H669   1.046       .  S
N666        H670   1.045       .  S
C671        C672   1.401       .  A
C671        C676   1.406       .  A
C671        H678   1.083       .  S
C672        C673   1.410       .  A
C673        C674   1.394       .  A
C673        N680   1.433       .  S
C674        C675   1.404       .  A
C674        H679   1.084       .  S
C675        C676   1.417       .  A
C676        N677   1.437       .  S
N677        H681   1.046       .  S
N677        H682   1.046       .  S
N680        H683   1.045       .  S
N680        H684   1.044       .  S
C685        C686   1.405       .  A
C685        C690   1.411       .  A
C685        H692   1.084       .  S
C686       C1427   1.409       .  A
C687       C1426   1.406       .  A
C687       C1428   1.399       .  A
C687        N694   1.433       .  S
C688        C689   1.404       .  A
C688       C1427   1.400       .  A
C688       H1433   1.083       .  S
C689        C690   1.419       .  A
C690        N691   1.432       .  S
N691        H695   1.045       .  S
N691        H696   1.046       .  S
H693       C1428   1.083       .  S
N694        H697   1.046       .  S
N694        H698   1.045       .  S
C699        C704   1.404       .  A
C699       C1440   1.397   1_545  A
C699        H706   1.084       .  S
C700        C701   1.408       .  A
C700       C1439   1.398       .  A
C701        C702   1.409       .  A
C701        N708   1.438       .  S
C702        C703   1.407       .  A
C702        H707   1.082       .  S
C703       C1444   1.420       .  A
C704       C1443   1.419       .  A
C704        N705   1.438       .  S
N705        H709   1.046       .  S
N705        H710   1.045       .  S
N708        H711   1.046       .  S
N708        H712   1.046       .  S
C713        C714   1.410       .  A
C713        C718   1.404       .  A
C713        H720   1.075       .  S
C714        C715   1.417       .  A
C715        C716   1.397       .  A
C715        N722   1.433       .  S
C716        C717   1.400       .  A
C716        H721   1.084       .  S
C717        C718   1.411       .  A
C718        N719   1.437       .  S
N719        H723   1.046       .  S
N719        H724   1.046       .  S
N722        H725   1.045       .  S
N722        H726   1.046       .  S
C727        C728   1.404       .  A
C727        C732   1.407       .  A
C727        H734   1.084       .  S
C728        C729   1.408       .  A
C729        C730   1.398       .  A
C729        N736   1.433       .  S
C730        C731   1.403       .  A
C730        H735   1.084       .  S
C731        C732   1.419       .  A
C732        N733   1.432       .  S
N733        H737   1.046       .  S
N733        H738   1.042       .  S
N736        H739   1.046       .  S
N736        H740   1.046       .  S
C741        C742   1.534       .  S
C741        C747   1.532       .  S
C741        C745   1.539       .  S
C741       C1454   1.537       .  S
C742        H749   1.085       .  S
C743        C744   1.548   1_545  S
C743       C1443   1.489       .  S
C744        C748   1.538       .  S
C744        C746   1.540   1_565  S
C744        H750   1.110       .  S
C745        H751   1.080       .  S
C746       C1426   1.480       .  S
C748       C1468   1.485       .  S
C753        C754   1.408   1_554  A
C753       C2238   1.397       .  A
C753       C1384   1.476       .  S
C754       C2235   1.401       .  A
C754       C1412   1.470       .  S
C755       C2234   1.402   1_455  A
C755        C756   1.400       .  A
C755        H760   1.085       .  S
C756        C757   1.408   1_556  A
C756       C1401   1.476       .  S
C757        C758   1.401       .  A
C757       C1373   1.476       .  S
C758       C2233   1.402   1_455  A
C758        H759   1.085       .  S
C761        C762   1.538       .  S
C761        C765   1.540       .  S
C761       C1342   1.533       .  S
C762        H769   1.086       .  S
C763        C764   1.543   1_545  S
C763       C1314   1.490       .  S
C764        C768   1.539       .  S
C764        C766   1.540   1_565  S
C764        H770   1.110       .  S
C765        H771   1.081       .  S
C766       C1331   1.490       .  S
C767        H772   1.086       .  S
C767        C768   1.366   1_545  D
C768       C1356   1.480       .  S
C773        C774   1.537       .  S
C773        C779   1.529   1_455  S
C773       C2257   1.539   1_455  S
C773       C2741   1.538   1_455  S
C774        H781   1.080       .  S
C774        C775   1.364       .  D
C775        C776   1.544       .  S
C775       C1286   1.488       .  S
C776        C780   1.543   1_455  S
C776       C2258   1.549   1_455  S
C776        H782   1.109       .  S
C777       C2253   1.540       .  S
C777        H783   1.086       .  S
C777        C778   1.369       .  D
C778       C2256   1.544       .  S
C778       C1300   1.490       .  S
C779        H784   1.087       .  S
C779        C780   1.363       .  D
C780       C2755   1.484       .  S
C785        C786   1.411   1_554  A
C785       C1219   1.485       .  S
C786       C1247   1.485       .  S
C787        C788   1.407       .  A
C787        H792   1.084       .  S
C788        C789   1.417   1_556  A
C788       C1233   1.495       .  S
C789        C790   1.406       .  A
C789       C1202   1.487       .  S
C790        H791   1.085       .  S
C793        C830   1.464       .  S
C793       C1415   1.480       .  S
C793        N811   1.351       .  A
N794        N811   1.321       .  A
N794        N816   1.319       .  A
N794       Co831   2.080       .  S
C795        C833   1.471       .  S
C795        H840   1.080       .  S
C795        N820   1.344       .  A
H796        C837   1.076       .  S
C797        C801   1.462       .  S
C797        H826   1.081       .  S
C797        N821   1.336       .  A
Co798       N816   2.075       .  S
Co798       N806   2.101       .  S
Co798       N838   2.095       .  S
Co798       N814   2.082       .  S
Co798      Cl842   2.449       .  S
N799        C837   1.339       .  A
N799        N806   1.316       .  A
N799       Co800   2.073       .  S
Co800       N803   2.090       .  S
Co800       N820   2.096       .  S
Co800       N807   2.080       .  S
Co800      Cl842   2.457       .  S
C801       C1398   1.483       .  S
C801        N839   1.352       .  A
N802        N809   1.317       .  A
N802        N832   1.325       .  A
N802       Co835   2.090       .  S
N803        N821   1.318       .  A
N803        N839   1.324       .  A
N804        C833   1.351       .  A
N804        N814   1.322       .  A
H805        C830   1.080       .  S
N806        N827   1.326       .  A
N807        N825   1.319       .  A
N807        N812   1.326       .  A
C808        C836   1.463       .  S
C808       C1289   1.485       .  S
C808        N812   1.351       .  A
N809        C824   1.343       .  A
N809       Co831   2.088       .  S
C810        C813   1.460       .  S
C810        H844   1.081       .  S
C810        N838   1.345       .  A
C813       C1303   1.478       .  S
C813        N834   1.350       .  A
N814        N820   1.319       .  A
N815        C841   1.341       .  A
N815        N817   1.319       .  A
N815       Co831   2.087       .  S
N816        C830   1.338       .  A
N817        N845   1.322       .  A
N817       Co835   2.074       .  S
H818        C841   1.081       .  S
H819        C836   1.081       .  S
N821       Co835   2.072       .  S
N822        N834   1.326       .  A
N822        N838   1.321       .  A
N822       Co831   2.093       .  S
C823        C837   1.466       .  S
C823       C1244   1.497       .  S
C823        N827   1.357       .  A
C824        C843   1.468       .  S
C824        H828   1.079       .  S
N825        C836   1.337       .  A
N825       Co835   2.084       .  S
C829        C841   1.464       .  S
C829       C1345   1.478       .  S
C829        N845   1.347       .  A
Co831      Cl842   2.451       .  S
N832        C843   1.354       .  A
C833       C1359   1.491       .  S
Co835      Cl842   2.441       .  S
C843       C1230   1.492       .  S
C846        C883   1.470       .  S
C846       C1471   1.487       .  S
C846        N864   1.351       .  A
N847        N864   1.323       .  A
N847        N869   1.319       .  A
N847       Co884   2.083       .  S
C848        C886   1.458       .  S
C848        H893   1.081       .  S
C848        N873   1.336       .  A
H849        C890   1.081       .  S
C850        C854   1.464       .  S
C850        H879   1.081       .  S
C850        N874   1.342       .  A
Co851       N869   2.096       .  S
Co851       N859   2.082       .  S
Co851       N891   2.082       .  S
Co851       N867   2.093       .  S
Co851      Cl895   2.456       .  S
N852        C890   1.340       .  A
N852        N859   1.320       .  A
N852       Co853   2.089       .  S
Co853       N856   2.078       .  S
Co853       N873   2.068       .  S
Co853       N860   2.091       .  S
Co853      Cl895   2.444       .  S
C854       C1457   1.480       .  S
C854        N892   1.349       .  A
N855        N862   1.319       .  A
N855        N885   1.321       .  A
N855       Co888   2.075       .  S
N856        N874   1.320       .  A
N856        N892   1.323       .  A
N857        C886   1.353       .  A
N857        N867   1.324       .  A
H858        C883   1.079       .  S
N859        N880   1.326       .  A
N860        N878   1.318       .  A
N860        N865   1.325       .  A
C861        C889   1.462       .  S
C861       C1205   1.484       .  S
C861        N865   1.351       .  A
N862        C877   1.342       .  A
N862       Co884   2.081       .  S
C863        C866   1.463       .  S
C863        H897   1.082       .  S
C863        N891   1.341       .  A
C866       C1216   1.486       .  S
C866        N887   1.352       .  A
N867        N873   1.320       .  A
N868        C894   1.336       .  A
N868        N870   1.319       .  A
N868       Co884   2.077       .  S
N869        C883   1.344       .  A
N870        N898   1.326       .  A
N870       Co888   2.097       .  S
H871        C894   1.079       .  S
H872        C889   1.082       .  S
N874       Co888   2.091       .  S
N875        N887   1.326       .  A
N875        N891   1.318       .  A
N875       Co884   2.091       .  S
C876        C890   1.460       .  S
C876       C1177   1.477       .  S
C876        N880   1.349       .  A
C877        C896   1.458       .  S
C877        H881   1.081       .  S
N878        C889   1.341       .  A
N878       Co888   2.079       .  S
C882        C894   1.465       .  S
C882       C1387   1.491       .  S
C882        N898   1.356       .  A
Co884      Cl895   2.446       .  S
N885        C896   1.346       .  A
C886       C1370   1.478       .  S
Co888      Cl895   2.454       .  S
C896       C1191   1.463       .  S
C899       C1328   1.484       .  S
C899        N917   1.354       .  A
N900        N917   1.330       .  A
N900       Co937   2.105       .  S
C901        C939   1.465       .  S
C901        H946   1.079       .  S
C901        N926   1.340       .  A
H902        C943   1.082       .  S
C903        C907   1.469       .  S
C903        H932   1.081       .  S
C903        N927   1.345       .  A
Co904       N922   2.086       .  S
Co904       N912   2.084       .  S
Co904       N944   2.076       .  S
Co904       N920   2.090       .  S
Co904     Cl1688   2.452   1_455  S
N905        C943   1.342       .  A
N905       N2392   1.320       .  A
N905       Co906   2.089       .  S
Co906       N909   2.079       .  S
Co906       N926   2.078       .  S
Co906       N913   2.090       .  S
C907       C1317   1.487       .  S
N908       N2395   1.319       .  A
N908        N938   1.324       .  A
N908       Co941   2.088       .  S
N909        N945   1.321       .  A
N910       C2419   1.354   1_455  A
N910        N920   1.325       .  A
H911        C936   1.081       .  S
N912       N2385   1.319   1_455  A
N912        N933   1.323       .  A
N913        N918   1.324       .  A
C914        C942   1.464       .  S
C914       C1132   1.481       .  S
N915        C930   1.342       .  A
N915       N2388   1.320   1_455  A
N915       Co937   2.092       .  S
C916        H950   1.080       .  S
C916        N944   1.338       .  A
C919       C1118   1.487       .  S
C919        N940   1.354       .  A
N920       N2406   1.317   1_455  A
N921        C947   1.342       .  A
N921       N2403   1.320   1_455  A
N921       Co937   2.092       .  S
N922        C936   1.341       .  A
N923       N2401   1.317       .  A
N923        N951   1.324       .  A
N923       Co941   2.086       .  S
H924        C947   1.081       .  S
H925        C942   1.081       .  S
N926       N2400   1.318       .  A
N927       Co941   2.089       .  S
N928        N940   1.326       .  A
N928       Co937   2.094       .  S
C929        C943   1.463       .  S
C929       C1258   1.482       .  S
C929       N2413   1.350       .  A
C930       C2429   1.467       .  S
C930        H934   1.079       .  S
N931        C942   1.340       .  A
N931       Co941   2.079       .  S
N933       C2409   1.351   1_455  A
C935       C2427   1.467       .  S
C935       C1163   1.490       .  S
C935        N951   1.353       .  A
Co937     Cl2428   2.458   1_455  S
N938        C949   1.353       .  A
C939       C1146   1.488       .  S
C939       N2390   1.354       .  A
Co941      Cl948   2.455       .  S
C947       C2415   1.465       .  S
Cl948     Co1644   2.452   1_565  S
Cl948     Co2417   2.447       .  S
C949       C2410   1.463       .  S
C949       C1272   1.482       .  S
C952       C2469   1.465       .  S
C952       C1048   1.487       .  S
C952        N970   1.354       .  A
N953        N970   1.325       .  A
N953       N2455   1.319       .  A
N953       Co990   2.093       .  S
C954        C992   1.463       .  S
C954        H999   1.080       .  S
C954        N979   1.338       .  A
H955        C996   1.081       .  S
C956        C960   1.470       .  S
C956        H985   1.080       .  S
C956        N980   1.346       .  A
Co957       N975   2.087       .  S
Co957       N965   2.078       .  S
Co957       N997   2.075       .  S
Co957       N973   2.085       .  S
Co957     Cl1741   2.447   1_455  S
N958        C996   1.342       .  A
N958       Co959   2.087       .  S
Co959       N962   2.074       .  S
Co959       N979   2.073       .  S
Co959       N966   2.094       .  S
Co959     Cl2481   2.450   1_455  S
C960       C1034   1.486       .  S
C960       N2478   1.350       .  A
N961        N991   1.327       .  A
N961       Co994   2.088       .  S
N962       N2460   1.320   1_455  A
N962        N998   1.321       .  A
N963        N973   1.322       .  A
H964        C989   1.079       .  S
N965        N986   1.323       .  A
N966       N2464   1.318   1_455  A
N966        N971   1.326       .  A
C967        C995   1.470       .  S
C967       C1076   1.500       .  S
C967       N2451   1.352       .  A
N968        C983   1.338       .  A
N968       Co990   2.087       .  S
C969       C2452   1.464       .  S
C969       H1003   1.079       .  S
C969        N997   1.340       .  A
N971       C2447   1.354   1_455  A
C972       C2449   1.462       .  S
C972       C1062   1.483       .  S
C972        N993   1.354       .  A
N974       C1000   1.337       .  A
N974       Co990   2.084       .  S
N975        C989   1.340       .  A
N975       N2433   1.319   1_455  A
N976       N1004   1.324       .  A
N976       Co994   2.097       .  S
H977       C1000   1.081       .  S
H978        C995   1.081       .  S
N980       N2442   1.320       .  A
N980       Co994   2.101       .  S
N981        N993   1.325       .  A
N981       N2477   1.317       .  A
N981       Co990   2.091       .  S
C982        C996   1.460       .  S
C982       C1440   1.467       .  S
C983        H987   1.081       .  S
N984        C995   1.345       .  A
N984       N2446   1.318       .  A
N984       Co994   2.092       .  S
C988       C1104   1.491       .  S
C988       N1004   1.353       .  A
C989       C2432   1.465       .  S
N991       C1002   1.351       .  A
C992       C1090   1.478       .  S
Co994     Cl1001   2.459       .  S
N997       N2461   1.316   1_455  A
N998       C2440   1.347   1_455  A
Cl1001    Co1697   2.451   1_565  S
Cl1001    Co2439   2.454       .  S
C1002      C1429   1.484       .  S
C1005      C1006   1.409       .  A
C1005      C1010   1.404       .  A
C1005      C1160   1.479       .  S
C1006      C2487   1.401       .  A
C1006      C1079   1.487       .  S
C1007      C2486   1.402   1_455  A
C1007      C2488   1.407       .  A
C1007      H1012   1.085       .  S
C1008      C2487   1.410       .  A
C1008      C1009   1.421       .  A
C1008      C1065   1.494       .  S
C1009      C1010   1.407       .  A
C1009      C1149   1.494       .  S
C1010      H1011   1.084       .  S
C1013      C1014   1.409       .  A
C1013      C1018   1.396       .  A
C1013      C1107   1.480       .  S
C1014      C1015   1.404       .  A
C1014      C1135   1.476       .  S
C1015      C1016   1.404       .  A
C1015      H1020   1.084       .  S
C1016      C1017   1.414       .  A
C1016      C1121   1.489       .  S
C1017      C1018   1.402       .  A
C1017      C1093   1.474       .  S
C1018      H1019   1.085       .  S
C1021      C2502   1.532       .  S
C1021      C2507   1.534   1_655  S
C1021      C1025   1.549   1_655  S
C1021      C2531   1.541       .  S
C1022      C2501   1.532       .  S
C1022      H1029   1.086       .  S
C1022      C1023   1.365       .  D
C1023      C2504   1.541       .  S
C1023      C1188   1.479       .  S
C1024      C2503   1.543       .  S
C1024      C1028   1.543   1_655  S
C1024      C1026   1.537   1_655  S
C1024      H1030   1.110       .  S
C1025      H1031   1.081       .  S
C1025      C1026   1.366       .  D
C1026      C1174   1.482       .  S
C1027      C2501   1.538       .  S
C1027      H1032   1.086       .  S
C1027      C2508   1.367       .  D
C1028      C2507   1.367       .  D
C1028      C2517   1.492       .  S
C1033      C2514   1.401       .  A
C1033      C1038   1.401       .  A
C1033      H1040   1.084       .  S
C1034      C2513   1.404       .  A
C1034      C1035   1.418       .  A
C1035      C1036   1.407       .  A
C1035      N1042   1.432       .  S
C1036      C1037   1.405       .  A
C1036      H1041   1.084       .  S
C1037      C2508   1.487       .  S
C1037      C2518   1.408       .  A
C1038      C2517   1.416       .  A
C1038      N1039   1.439       .  S
N1039      H1043   1.046       .  S
N1039      H1044   1.044       .  S
N1042      H1045   1.046       .  S
N1042      H1046   1.043       .  S
C1047      C1048   1.402       .  A
C1047      C1052   1.403       .  A
C1047      H1054   1.084       .  S
C1048      C2529   1.416       .  A
C1049      C2528   1.416   1_455  A
C1049      C1050   1.402       .  A
C1049      N1056   1.432       .  S
C1050      C2531   1.410   1_455  A
C1050      H1055   1.076       .  S
C1051      C2501   1.537       .  S
C1051      C2530   1.410       .  A
C1051      C1052   1.417       .  A
C1052      N1053   1.433       .  S
N1053      H1057   1.045       .  S
N1053      H1058   1.046       .  S
N1056      H1059   1.046       .  S
N1056      H1060   1.041       .  S
C1061      C1062   1.402       .  A
C1061      C1066   1.400       .  A
C1061      H1068   1.084       .  S
C1062      C2543   1.418       .  A
C1063      C2542   1.419       .  A
C1063      C1064   1.402       .  A
C1063      N1070   1.431       .  S
C1064      C2545   1.403       .  A
C1064      H1069   1.084       .  S
C1065      C2544   1.407       .  A
C1065      C1066   1.411       .  A
C1066      N1067   1.433       .  S
N1067      H1071   1.045       .  S
N1067      H1072   1.046       .  S
N1070      H1073   1.042       .  S
N1070      H1074   1.045       .  S
C1075      C1076   1.409       .  A
C1075      C1080   1.408       .  A
C1075      H1082   1.082       .  S
C1076      C2557   1.424       .  A
C1077      C2556   1.422   1_455  A
C1077      C1078   1.402       .  A
C1077      N1084   1.431       .  S
C1078      C2559   1.400   1_455  A
C1078      H1083   1.084       .  S
C1079      C2558   1.399       .  A
C1079      C1080   1.406       .  A
C1080      N1081   1.432       .  S
N1081      H1085   1.045       .  S
N1081      H1086   1.046       .  S
N1084      H1087   1.045       .  S
N1084      H1088   1.045       .  S
C1089      C1090   1.405   1_545  A
C1089      C1094   1.398       .  A
C1090      C1091   1.415       .  A
C1091      C1092   1.403       .  A
C1091      N1098   1.436       .  S
C1092      C1093   1.400       .  A
C1092      H1097   1.084       .  S
C1093      C1094   1.404   1_565  A
N1098      H1101   1.045       .  S
N1098      H1102   1.046       .  S
C1103      C1108   1.399       .  A
C1103      H1110   1.082       .  S
C1104      C1105   1.415       .  A
C1105      C1106   1.403       .  A
C1105      N1112   1.432       .  S
C1106      C1107   1.398       .  A
C1106      H1111   1.084       .  S
C1108      N1109   1.433       .  S
N1109      H1113   1.046       .  S
N1109      H1114   1.046       .  S
N1112      H1115   1.046       .  S
N1112      H1116   1.045       .  S
C1117      C1118   1.405       .  A
C1117      C1122   1.405       .  A
C1117      H1124   1.083       .  S
C1119      C1120   1.403       .  A
C1119      N1126   1.431       .  S
C1120      H1125   1.084       .  S
C1121      C1122   1.408       .  A
C1122      N1123   1.432       .  S
N1123      H1127   1.045       .  S
N1123      H1128   1.046       .  S
N1126      H1129   1.046       .  S
N1126      H1130   1.046       .  S
C1131      C1132   1.406       .  A
C1131      C1136   1.401       .  A
C1131      H1138   1.082       .  S
C1133      C1134   1.401       .  A
C1133      N1140   1.432       .  S
C1134      H1139   1.084       .  S
C1135      C1136   1.415       .  A
C1136      N1137   1.439       .  S
N1137      H1141   1.046       .  S
N1137      H1142   1.043       .  S
N1140      H1143   1.046       .  S
N1140      H1144   1.046       .  S
C1145      C2626   1.405   1_455  A
C1145      C1150   1.406       .  A
C1145      H1152   1.083       .  S
C1146      C2625   1.405       .  A
C1146      C1147   1.419       .  A
C1147      C1148   1.402       .  A
C1147      N1154   1.432       .  S
C1148      C1149   1.404       .  A
C1148      H1153   1.083       .  S
C1149      C2630   1.411       .  A
C1150      C2629   1.412       .  A
C1150      N1151   1.438       .  S
N1151      H1155   1.046       .  S
N1151      H1156   1.046       .  S
N1154      H1157   1.041       .  S
N1154      H1158   1.046       .  S
C1159      C2640   1.402   1_455  A
C1159      C1164   1.405       .  A
C1159      H1166   1.083       .  S
C1160      C2639   1.400       .  A
C1160      C1161   1.409       .  A
C1161      C1162   1.398       .  A
C1161      N1168   1.432       .  S
C1162      C1163   1.408       .  A
C1162      H1167   1.083       .  S
C1163      C2644   1.418       .  A
C1164      C2643   1.412   1_455  A
C1164      N1165   1.431       .  S
N1165      H1169   1.046       .  S
N1165      H1170   1.045       .  S
N1168      H1171   1.045       .  S
N1168      H1172   1.044       .  S
C1173      C1174   1.401       .  A
C1173      C1178   1.398       .  A
C1173      H1180   1.084       .  S
C1174      C1175   1.418       .  A
C1175      C1176   1.405       .  A
C1175      N1182   1.437       .  S
C1176      C1177   1.402       .  A
C1176      H1181   1.084       .  S
C1177      C1178   1.414       .  A
C1178      N1179   1.433       .  S
N1179      H1183   1.043       .  S
N1179      H1184   1.046       .  S
N1182      H1185   1.040       .  S
N1182      H1186   1.046       .  S
C1187      C1188   1.402       .  A
C1187      C1192   1.406       .  A
C1187      H1194   1.084       .  S
C1188      C1189   1.417       .  A
C1189      C1190   1.397       .  A
C1189      N1196   1.433       .  S
C1190      C1191   1.397       .  A
C1190      H1195   1.084       .  S
C1191      C1192   1.408       .  A
C1192      N1193   1.438       .  S
N1193      H1197   1.046       .  S
N1193      H1198   1.045       .  S
N1196      H1199   1.046       .  S
N1196      H1200   1.043       .  S
C1201      C1202   1.402       .  A
C1201      C1206   1.402       .  A
C1201      H1208   1.084       .  S
C1202      C1203   1.409       .  A
C1203      C1204   1.404       .  A
C1203      N1210   1.433       .  S
C1204      C1205   1.405       .  A
C1204      H1209   1.083       .  S
C1205      C1206   1.417       .  A
C1206      N1207   1.432       .  S
N1207      H1211   1.046       .  S
N1207      H1212   1.044       .  S
N1210      H1213   1.046       .  S
N1210      H1214   1.045       .  S
C1215      C1216   1.404       .  A
C1215      C1220   1.403       .  A
C1215      H1222   1.083       .  S
C1216      C1217   1.410       .  A
C1217      C1218   1.406       .  A
C1217      N1224   1.431       .  S
C1218      C1219   1.402       .  A
C1218      H1223   1.084       .  S
C1219      C1220   1.418       .  A
C1220      N1221   1.440       .  S
N1221      H1225   1.046       .  S
N1221      H1226   1.043       .  S
N1224      H1227   1.045       .  S
N1224      H1228   1.045       .  S
C1229      C1230   1.405       .  A
C1229      C1234   1.405       .  A
C1229      H1236   1.083       .  S
C1230      C1231   1.420       .  A
C1231      C1232   1.405       .  A
C1231      N1238   1.431       .  S
C1232      C1233   1.405       .  A
C1232      H1237   1.084       .  S
C1233      C1234   1.412       .  A
C1234      N1235   1.438       .  S
N1235      H1239   1.046       .  S
N1235      H1240   1.046       .  S
N1238      H1241   1.046       .  S
N1238      H1242   1.042       .  S
C1243      C1244   1.408       .  A
C1243      C1248   1.405       .  A
C1243      H1250   1.083       .  S
C1244      C1245   1.425       .  A
C1245      C1246   1.402       .  A
C1245      N1252   1.429       .  S
C1246      C1247   1.400       .  A
C1246      H1251   1.084       .  S
C1247      C1248   1.407       .  A
C1248      N1249   1.437       .  S
N1249      H1253   1.046       .  S
N1249      H1254   1.045       .  S
N1252      H1255   1.045       .  S
N1252      H1256   1.043       .  S
C1257      C1258   1.400       .  A
C1257      C1262   1.403       .  A
C1257      H1264   1.083       .  S
C1258      C2739   1.410       .  A
C1259      C2738   1.410   1_455  A
C1259      C1260   1.406       .  A
C1259      N1266   1.439       .  S
C1260      C2741   1.413   1_455  A
C1260      H1265   1.074       .  S
C1261      C2253   1.539       .  S
C1261      C2740   1.412       .  A
C1261      C1262   1.419       .  A
C1262      N1263   1.433       .  S
N1263      H1267   1.046       .  S
N1263      H1268   1.046       .  S
N1266      H1269   1.046       .  S
N1266      H1270   1.046       .  S
C1271      C1272   1.405       .  A
C1271      C1276   1.399       .  A
C1271      H1278   1.084       .  S
C1272      C1273   1.420       .  A
C1273      C2754   1.401       .  A
C1273      N1280   1.432       .  S
C1274      C2753   1.405       .  A
C1274      C2755   1.401   1_455  A
C1274      H1279   1.082       .  S
C1275      C2260   1.477       .  S
C1275      C2754   1.398       .  A
C1275      C1276   1.407       .  A
C1276      N1277   1.433       .  S
N1277      H1281   1.045       .  S
N1277      H1282   1.046       .  S
N1280      H2763   1.046       .  S
N1280      H2764   1.041       .  S
H1283      N2760   1.045       .  S
H1284      N2760   1.042       .  S
C1285      C1286   1.403       .  A
C1285      C1290   1.409       .  A
C1285      H1292   1.082       .  S
C1286      C1287   1.414       .  A
C1287      C1288   1.400       .  A
C1287      N1294   1.439       .  S
C1288      C1289   1.402       .  A
C1288      H1293   1.081       .  S
C1289      C1290   1.413       .  A
C1290      N1291   1.432       .  S
N1291      H1295   1.045       .  S
N1291      H1296   1.046       .  S
N1294      H1297   1.046       .  S
N1294      H1298   1.046       .  S
C1299      C1300   1.407       .  A
C1299      C1304   1.408       .  A
C1299      H1306   1.084       .  S
C1300      C1301   1.409       .  A
C1301      C1302   1.407       .  A
C1301      N1308   1.432       .  S
C1302      C1303   1.403       .  A
C1302      H1307   1.084       .  S
C1303      C1304   1.408       .  A
C1304      N1305   1.437       .  S
N1305      H1309   1.046       .  S
N1305      H1310   1.046       .  S
N1308      H1311   1.045       .  S
N1308      H1312   1.045       .  S
C1313      C1318   1.405       .  A
C1313      H1320   1.083       .  S
C1314      C1315   1.410   1_545  A
C1315      C1316   1.409       .  A
C1315      N1322   1.431       .  S
C1316      C1317   1.407       .  A
C1316      H1321   1.082       .  S
C1318      N1319   1.438       .  S
N1319      H1323   1.046       .  S
N1319      H1324   1.046       .  S
N1322      H1325   1.045       .  S
N1322      H1326   1.045       .  S
C1327      C1328   1.402       .  A
C1327      C1332   1.403   1_565  A
C1327      H1334   1.084       .  S
C1328      C1329   1.420       .  A
C1329      C1330   1.409   1_565  A
C1330      C1331   1.403       .  A
C1331      C1332   1.415       .  A
C1332      N1333   1.433       .  S
N1333      H1337   1.044       .  S
N1333      H1338   1.045   1_545  S
C1341      C1342   1.412       .  A
C1341      C1346   1.407       .  A
C1341      H1348   1.075       .  S
C1342      C1343   1.417       .  A
C1343      C1344   1.399       .  A
C1343      N1350   1.433       .  S
C1344      C1345   1.398       .  A
C1344      H1349   1.083       .  S
C1345      C1346   1.411       .  A
C1346      N1347   1.439       .  S
N1347      H1351   1.046       .  S
N1347      H1352   1.046       .  S
N1350      H1353   1.045       .  S
N1350      H1354   1.046       .  S
C1355      C1356   1.401       .  A
C1355      C1360   1.407       .  A
C1355      H1362   1.083       .  S
C1356      C1357   1.415       .  A
C1357      C1358   1.400       .  A
C1357      N1364   1.439       .  S
C1358      C1359   1.407       .  A
C1358      H1363   1.084       .  S
C1359      C1360   1.413       .  A
C1360      N1361   1.431       .  S
N1361      H1365   1.046       .  S
N1361      H1366   1.046       .  S
N1364      H1367   1.043       .  S
N1364      H1368   1.046       .  S
C1369      C1370   1.406       .  A
C1369      C1374   1.396       .  A
C1369      H1376   1.082       .  S
C1370      C1371   1.410       .  A
C1371      C1372   1.402       .  A
C1371      N1378   1.432       .  S
C1372      C1373   1.401       .  A
C1372      H1377   1.083       .  S
C1373      C1374   1.410       .  A
C1374      N1375   1.433       .  S
N1375      H1379   1.044       .  S
N1375      H1380   1.044       .  S
N1378      H1381   1.046       .  S
N1378      H1382   1.046       .  S
C1383      C1384   1.395       .  A
C1383      C1388   1.400       .  A
C1383      H1390   1.084       .  S
C1384      C1385   1.408       .  A
C1385      C1386   1.407       .  A
C1385      N1392   1.438       .  S
C1386      C1387   1.408       .  A
C1386      H1391   1.083       .  S
C1387      C1388   1.417       .  A
C1388      N1389   1.429       .  S
N1389      H1393   1.045       .  S
N1389      H1394   1.046       .  S
N1392      H1395   1.045       .  S
N1392      H1396   1.045       .  S
C1397      C1398   1.406       .  A
C1397      C1402   1.399       .  A
C1397      H1404   1.081       .  S
C1398      C1399   1.413       .  A
C1399      C1400   1.404       .  A
C1399      N1406   1.432       .  S
C1400      C1401   1.400       .  A
C1400      H1405   1.084       .  S
C1401      C1402   1.403       .  A
C1402      N1403   1.432       .  S
N1403      H1407   1.046       .  S
N1403      H1408   1.046       .  S
N1406      H1409   1.046       .  S
N1406      H1410   1.046       .  S
C1411      C1412   1.399       .  A
C1411      C1416   1.404       .  A
C1411      H1418   1.083       .  S
C1412      C1413   1.407       .  A
C1413      C1414   1.393       .  A
C1413      N1420   1.433       .  S
C1414      C1415   1.406       .  A
C1414      H1419   1.084       .  S
C1415      C1416   1.416       .  A
C1416      N1417   1.436       .  S
N1417      H1421   1.046       .  S
N1417      H1422   1.046       .  S
N1420      H1423   1.045       .  S
N1420      H1424   1.045       .  S
C1425      C1426   1.402   1_565  A
C1425      C1430   1.406       .  A
C1425      H1432   1.084       .  S
C1427      N1434   1.433       .  S
C1428      C1429   1.404   1_545  A
C1429      C1430   1.418       .  A
C1430      N1431   1.432       .  S
N1431      H1435   1.045       .  S
N1431      H1436   1.046       .  S
N1434      H1437   1.046       .  S
N1434      H1438   1.045       .  S
C1439      C1444   1.406       .  A
C1439      H1446   1.084       .  S
C1440      C1441   1.407       .  A
C1441      C1442   1.405       .  A
C1441      N1448   1.438       .  S
C1442      C1443   1.404   1_565  A
C1442      H1447   1.083       .  S
C1444      N1445   1.438       .  S
N1445      H1449   1.046       .  S
N1445      H1450   1.046       .  S
N1448      H1451   1.046       .  S
N1448      H1452   1.046       .  S
C1453      C1454   1.413       .  A
C1453      C1458   1.407       .  A
C1453      H1460   1.074       .  S
C1454      C1455   1.417       .  A
C1455      C1456   1.401       .  A
C1455      N1462   1.434       .  S
C1456      C1457   1.401       .  A
C1456      H1461   1.084       .  S
C1457      C1458   1.408       .  A
C1458      N1459   1.438       .  S
N1459      H1463   1.046       .  S
N1459      H1464   1.046       .  S
N1462      H1465   1.046       .  S
N1462      H1466   1.046       .  S
C1467      C1468   1.402       .  A
C1467      C1472   1.405       .  A
C1467      H1474   1.084       .  S
C1468      C1469   1.408       .  A
C1469      C1470   1.400       .  A
C1469      N1476   1.433       .  S
C1470      C1471   1.405       .  A
C1470      H1475   1.084       .  S
C1471      C1472   1.419       .  A
C1472      N1473   1.431       .  S
N1473      H1477   1.046       .  S
N1473      H1478   1.042       .  S
N1476      H1479   1.046       .  S
N1476      H1480   1.046       .  S
C1481      C1482   1.539       .  S
C1481      C1487   1.533       .  S
C1481      C1485   1.539       .  S
C1481      C2194   1.539       .  S
C1482      H1489   1.084       .  S
C1482      C2223   1.374       .  D
C1483      C1484   1.538       .  S
C1483      C2222   1.369       .  D
C1483      C2183   1.485       .  S
C1484      C1488   1.536       .  S
C1484      C1486   1.535       .  S
C1484      H1490   1.111       .  S
C1485      H1491   1.081       .  S
C1485      C2226   1.364       .  D
C1486      C2225   1.366       .  D
C1486      C2166   1.481       .  S
C1487      H2232   1.086       .  S
C1487      C2228   1.363   1_545  D
C1488      C2227   1.366       .  D
C1488      C2208   1.484       .  S
H1492      C2227   1.086       .  S
C1493      C1494   1.416   1_554  A
C1493      C2124   1.485       .  S
C1494      C2152   1.480       .  S
C1495      C1496   1.400       .  A
C1495      H1500   1.085       .  S
C1496      C1497   1.408   1_556  A
C1496      C2141   1.474       .  S
C1497      C1498   1.402       .  A
C1497      C2113   1.479       .  S
C1498      H1499   1.085       .  S
C1501      C1502   1.533       .  S
C1501      C2247   1.535       .  S
C1501      C1505   1.543       .  S
C1501      C2082   1.536       .  S
C1502      H1509   1.086       .  S
C1502      C2243   1.367       .  D
C1503      C1504   1.543       .  S
C1503      C2242   1.369       .  D
C1503      C2054   1.488       .  S
C1504      C1508   1.538       .  S
C1504      C1506   1.540       .  S
C1504      H1510   1.110       .  S
C1505      H1511   1.081       .  S
C1505      C2246   1.363       .  D
C1506      C2245   1.364       .  D
C1506      C2071   1.485       .  S
C1507      C2241   1.534       .  S
C1507      H1512   1.087       .  S
C1507      C1508   1.364       .  D
C1508      C2096   1.482       .  S
C1513      C1514   1.541       .  S
C1513      C1519   1.531       .  S
C1514      H1521   1.080       .  S
C1514      C1515   1.366       .  D
C1515      C1516   1.546       .  S
C1515      C2026   1.494       .  S
C1516      C1520   1.540       .  S
C1516      H1522   1.108       .  S
C1517      H1523   1.086       .  S
C1517      C1518   1.370       .  D
C1518      C2040   1.497       .  S
C1519      H1524   1.086       .  S
C1519      C1520   1.364       .  D
C1525      C1526   1.414   1_554  A
C1525      C2270   1.403       .  A
C1525      C1959   1.486       .  S
C1526      C2267   1.410       .  A
C1526      C1987   1.491       .  S
C1527      C2266   1.403   1_545  A
C1527      C1528   1.405       .  A
C1527      H1532   1.084       .  S
C1528      C1529   1.417   1_556  A
C1528      C1973   1.494       .  S
C1529      C1530   1.405       .  A
C1529      C1942   1.483       .  S
C1530      C2265   1.404   1_545  A
C1530      H1531   1.085       .  S
C1533      C1570   1.465       .  S
C1533      C2155   1.481       .  S
C1533      N1551   1.350       .  A
N1534      N1551   1.322       .  A
N1534      N1556   1.319       .  A
N1534     Co1571   2.079       .  S
C1535      C1573   1.467       .  S
C1535      H1580   1.081       .  S
C1535      N1560   1.343       .  A
H1536      C1577   1.078       .  S
C1537      C1541   1.465       .  S
C1537      H1566   1.081       .  S
C1537      N1561   1.342       .  A
Co1538     N1556   2.085       .  S
Co1538     N1546   2.095       .  S
Co1538     N1578   2.102       .  S
Co1538     N1554   2.089       .  S
Co1538    Cl1582   2.453       .  S
N1539      C1577   1.341       .  A
N1539      N1546   1.318       .  A
N1539     Co1540   2.087       .  S
Co1540     N1543   2.089       .  S
Co1540     N1560   2.094       .  S
Co1540     N1547   2.101       .  S
Co1540    Cl1582   2.458       .  S
C1541      C2138   1.486       .  S
C1541      N1579   1.351       .  A
N1542      N1549   1.317       .  A
N1542      N1572   1.325       .  A
N1542     Co1575   2.083       .  S
N1543      N1561   1.319       .  A
N1543      N1579   1.323       .  A
N1544      C1573   1.351       .  A
N1544      N1554   1.323       .  A
H1545      C1570   1.081       .  S
N1546      N1567   1.326       .  A
N1547      N1565   1.319       .  A
N1547      N1552   1.330       .  A
C1548      C1576   1.462       .  S
C1548      C2029   1.493       .  S
C1548      N1552   1.357       .  A
N1549      C1564   1.340       .  A
N1549     Co1571   2.083       .  S
C1550      C1553   1.463       .  S
C1550      H1584   1.081       .  S
C1550      N1578   1.347       .  A
C1553      C2043   1.485       .  S
C1553      N1574   1.351       .  A
N1554      N1560   1.321       .  A
N1555      C1581   1.340       .  A
N1555      N1557   1.320       .  A
N1555     Co1571   2.080       .  S
N1556      C1570   1.341       .  A
N1557      N1585   1.323       .  A
N1557     Co1575   2.087       .  S
H1558      C1581   1.081       .  S
H1559      C1576   1.081       .  S
N1561     Co1575   2.085       .  S
N1562      N1574   1.327       .  A
N1562      N1578   1.321       .  A
N1562     Co1571   2.096       .  S
C1563      C1577   1.467       .  S
C1563      C1984   1.494       .  S
C1563      N1567   1.355       .  A
C1564      C1583   1.464       .  S
C1564      H1568   1.079       .  S
N1565      C1576   1.337       .  A
N1565     Co1575   2.083       .  S
C1569      C1581   1.460       .  S
C1569      C2085   1.477       .  S
C1569      N1585   1.350       .  A
Co1571    Cl1582   2.453       .  S
N1572      C1583   1.352       .  A
C1573      C2099   1.485       .  S
Co1575    Cl1582   2.446       .  S
C1583      C1970   1.484       .  S
C1586      C1623   1.470       .  S
C1586      C2211   1.488       .  S
C1586      N1604   1.351       .  A
N1587      N1604   1.323       .  A
N1587      N1609   1.320       .  A
N1587     Co1624   2.086       .  S
C1588      C1626   1.460       .  S
C1588      H1633   1.081       .  S
C1588      N1613   1.338       .  A
H1589      C1630   1.079       .  S
C1590      C1594   1.463       .  S
C1590      H1619   1.081       .  S
C1590      N1614   1.341       .  A
Co1591     N1609   2.099       .  S
Co1591     N1599   2.091       .  S
Co1591     N1631   2.084       .  S
Co1591     N1607   2.091       .  S
Co1591    Cl1635   2.459       .  S
N1592      C1630   1.338       .  A
N1592      N1599   1.319       .  A
N1592     Co1593   2.080       .  S
Co1593     N1596   2.087       .  S
Co1593     N1613   2.079       .  S
Co1593     N1600   2.081       .  S
Co1593    Cl1635   2.444       .  S
C1594      C2197   1.483       .  S
C1594      N1632   1.351       .  A
N1595      N1602   1.320       .  A
N1595      N1625   1.324       .  A
N1595     Co1628   2.080       .  S
N1596      N1614   1.320       .  A
N1596      N1632   1.324       .  A
N1597      C1626   1.352       .  A
N1597      N1607   1.325       .  A
H1598      C1623   1.080       .  S
N1599      N1620   1.326       .  A
N1600      N1618   1.318       .  A
N1600      N1605   1.324       .  A
C1601      C1629   1.466       .  S
C1601      C1945   1.487       .  S
C1601      N1605   1.350       .  A
N1602      C1617   1.344       .  A
N1602     Co1624   2.093       .  S
C1603      C1606   1.464       .  S
C1603      H1637   1.081       .  S
C1603      N1631   1.340       .  A
C1606      C1956   1.491       .  S
C1606      N1627   1.353       .  A
N1607      N1613   1.320       .  A
N1608      C1634   1.339       .  A
N1608      N1610   1.320       .  A
N1608     Co1624   2.082       .  S
N1609      C1623   1.345       .  A
N1610      N1638   1.324       .  A
N1610     Co1628   2.090       .  S
H1611      C1634   1.081       .  S
H1612      C1629   1.081       .  S
N1614     Co1628   2.087       .  S
N1615      N1627   1.327       .  A
N1615      N1631   1.318       .  A
N1615     Co1624   2.092       .  S
C1616      C1630   1.461       .  S
C1616      C1917   1.485       .  S
C1616      N1620   1.353       .  A
C1617      C1636   1.461       .  S
C1617      H1621   1.081       .  S
N1618      C1629   1.341       .  A
N1618     Co1628   2.084       .  S
C1622      C1634   1.463       .  S
C1622      C2127   1.484       .  S
C1622      N1638   1.353       .  A
Co1624    Cl1635   2.448       .  S
N1625      C1636   1.347       .  A
C1626      C2110   1.480       .  S
Co1628    Cl1635   2.455       .  S
C1636      C1931   1.473       .  S
C1639      C2416   1.460       .  S
C1639      C2068   1.478       .  S
C1639      N1657   1.350       .  A
N1640      N1657   1.327       .  A
N1640      N2402   1.321       .  A
N1640     Co1677   2.092       .  S
C1641      C1679   1.466       .  S
C1641      H1686   1.079       .  S
C1641      N1666   1.340       .  A
H1642      C1683   1.081       .  S
C1643      C1647   1.470       .  S
C1643      H1672   1.081       .  S
C1643      N1667   1.347       .  A
Co1644     N1662   2.084       .  S
Co1644     N1652   2.092       .  S
Co1644     N1684   2.083       .  S
Co1644     N1660   2.085       .  S
N1645      C1683   1.341       .  A
N1645     Co1646   2.087       .  S
Co1646     N1649   2.077       .  S
Co1646     N1666   2.079       .  S
Co1646     N1653   2.094   1_545  S
Co1646    Cl2428   2.450   1_545  S
C1647      C2057   1.490       .  S
C1647      N2425   1.347       .  A
N1648      N1678   1.325       .  A
N1648     Co1681   2.095       .  S
N1649      N2407   1.318   1_545  A
N1649      N1685   1.320       .  A
N1650      N1660   1.324       .  A
H1651      C1676   1.082       .  S
N1652      N1673   1.325       .  A
N1653      N2411   1.320       .  A
N1653      N1658   1.327   1_565  A
C1654      C1682   1.466       .  S
C1654      C1872   1.482       .  S
C1654      N2398   1.349       .  A
N1655      C1670   1.342       .  A
N1655     Co1677   2.093       .  S
C1656      C2399   1.465   1_545  S
C1656      H1690   1.080       .  S
C1656      N1684   1.340       .  A
N1658      C2394   1.354   1_545  A
C1659      C2396   1.460       .  S
C1659      C1858   1.484       .  S
C1659      N1680   1.355       .  A
N1661      C1687   1.343       .  A
N1661     Co1677   2.090       .  S
N1662      C1676   1.341       .  A
N1662      N2380   1.320   1_545  A
N1663      N1691   1.328       .  A
N1663     Co1681   2.103       .  S
H1664      C1687   1.081       .  S
H1665      C1682   1.081       .  S
N1667      N2389   1.320       .  A
N1667     Co1681   2.103       .  S
N1668      N1680   1.326       .  A
N1668      N2424   1.319       .  A
N1668     Co1677   2.097       .  S
C1669      C1683   1.462       .  S
C1669      C1998   1.484       .  S
C1670      H1674   1.080       .  S
N1671      C1682   1.340       .  A
N1671      N2393   1.320       .  A
N1671     Co1681   2.086       .  S
C1675      C1903   1.496       .  S
C1675      N1691   1.358   1_455  A
C1676      C2379   1.458   1_545  S
N1678      C1689   1.354       .  A
C1679      C1886   1.489       .  S
Co1681    Cl1688   2.458       .  S
N1684      N2408   1.319   1_545  A
N1685      C2387   1.348   1_545  A
Cl1688    Co2386   2.446       .  S
C1689      C2012   1.485       .  S
C1692      C1788   1.476   1_455  S
C1692      N1710   1.352   1_455  A
N1693      N1710   1.324       .  A
N1693     Co1730   2.085       .  S
C1694      C1732   1.460       .  S
C1694      H1739   1.081       .  S
C1694      N1719   1.339       .  A
H1695      C1736   1.081       .  S
C1696      C1700   1.469       .  S
C1696      H1725   1.080       .  S
C1696      N1720   1.344       .  A
Co1697     N1715   2.088       .  S
Co1697     N1705   2.088   1_545  S
Co1697     N1737   2.088       .  S
Co1697     N1713   2.094   1_545  S
N1698      C1736   1.342       .  A
N1698      N2445   1.319       .  A
N1698     Co1699   2.080       .  S
Co1699     N1702   2.078       .  S
Co1699     N1719   2.072       .  S
Co1699     N1706   2.079       .  S
C1700      C1774   1.483       .  S
N1701      N2448   1.320       .  A
N1701      N1731   1.326       .  A
N1701     Co1734   2.088       .  S
N1702      N1738   1.321       .  A
N1703      C2472   1.352   1_545  A
N1703      N1713   1.324   1_545  A
H1704      C1729   1.078       .  S
N1705      N2438   1.320       .  A
N1705      N1726   1.325   1_565  A
N1706      N1711   1.323       .  A
C1707      C1735   1.464       .  S
C1707      C1816   1.494       .  S
N1708      C1723   1.339       .  A
N1708      N2441   1.320   1_545  A
N1708     Co1730   2.084       .  S
C1709      H1743   1.079       .  S
C1709      N1737   1.343       .  A
C1712      C1802   1.490       .  S
C1712      N1733   1.356   1_455  A
N1713      N2459   1.320       .  A
N1714      C1740   1.337       .  A
N1714      N2456   1.321   1_545  A
N1714     Co1730   2.076       .  S
N1715      C1729   1.340       .  A
N1716      N2454   1.321       .  A
N1716      N1744   1.323       .  A
N1716     Co1734   2.085       .  S
H1717      C1740   1.081       .  S
H1718      C1735   1.082       .  S
N1719      N2453   1.318       .  A
N1720     Co1734   2.095       .  S
N1721      N1733   1.325       .  A
N1721     Co1730   2.097       .  S
C1722      C1736   1.457       .  S
C1722      C2180   1.467       .  S
C1722      N2466   1.347       .  A
C1723      C2482   1.462   1_545  S
C1723      H1727   1.082       .  S
N1724      C1735   1.343       .  A
N1724     Co1734   2.088       .  S
N1726      C2462   1.349   1_545  A
C1728      C2480   1.461       .  S
C1728      C1844   1.477       .  S
C1728      N1744   1.350       .  A
Co1730    Cl2481   2.446   1_545  S
N1731      C1742   1.351       .  A
C1732      C1830   1.475       .  S
C1732      N2443   1.351       .  A
Co1734    Cl1741   2.455       .  S
C1740      C2468   1.460   1_545  S
Cl1741    Co2470   2.450       .  S
C1742      C2463   1.460       .  S
C1742      C2169   1.483       .  S
C1745      C1746   1.415       .  A
C1745      C1750   1.407   1_655  A
C1745      C1900   1.483       .  S
C1746      C1819   1.493       .  S
C1747      H1752   1.084       .  S
C1748      C1749   1.416   1_655  A
C1748      C1805   1.487   1_655  S
C1749      C1750   1.408       .  A
C1749      C1889   1.495       .  S
C1750      H1751   1.084       .  S
C1753      C1754   1.405       .  A
C1753      C1758   1.396       .  A
C1753      C1847   1.475       .  S
C1754      C1755   1.399       .  A
C1754      C1875   1.473       .  S
C1755      C1756   1.403       .  A
C1755      H1760   1.085       .  S
C1756      C1757   1.414       .  A
C1756      C1861   1.483       .  S
C1757      C1758   1.402       .  A
C1757      C1833   1.478       .  S
C1758      H1759   1.085       .  S
C1761      C1765   1.547       .  S
C1762      H1769   1.087       .  S
C1762      C1763   1.361       .  D
C1763      C1928   1.477       .  S
C1764      C1768   1.538       .  S
C1764      C1766   1.537       .  S
C1764      H1770   1.111       .  S
C1765      H1771   1.080       .  S
C1765      C1766   1.366       .  D
C1766      C1914   1.488       .  S
C1767      H1772   1.086       .  S
C1773      C1778   1.401       .  A
C1773      H1780   1.083       .  S
C1774      C1775   1.416       .  A
C1775      C1776   1.404       .  A
C1775      N1782   1.432       .  S
C1776      C1777   1.404   1_655  A
C1776      H1781   1.083       .  S
C1778      N1779   1.439       .  S
N1779      H1783   1.046       .  S
N1779      H1784   1.044       .  S
N1782      H1785   1.046       .  S
N1782      H1786   1.043       .  S
C1787      C1788   1.400       .  A
C1787      C1792   1.400       .  A
C1787      H1794   1.084       .  S
C1789      C1790   1.401       .  A
C1789      N1796   1.432       .  S
C1790      H1795   1.075       .  S
C1791      C1792   1.417       .  A
C1792      N1793   1.433       .  S
N1793      H1797   1.046       .  S
N1793      H1798   1.045       .  S
N1796      H1799   1.045       .  S
N1796      H1800   1.042       .  S
C1801      C1802   1.406   1_655  A
C1801      C1806   1.403       .  A
C1801      H1808   1.083       .  S
C1803      C1804   1.407       .  A
C1803      N1810   1.432       .  S
C1804      H1809   1.083       .  S
C1805      C1806   1.409   1_455  A
C1806      N1807   1.438       .  S
N1807      H1811   1.046       .  S
N1807      H1812   1.045       .  S
N1810      H1813   1.042       .  S
N1810      H1814   1.046       .  S
C1815      C1816   1.407       .  A
C1815      C1820   1.410       .  A
C1815      H1822   1.083       .  S
C1817      C1818   1.399       .  A
C1817      N1824   1.432       .  S
C1818      H1823   1.084       .  S
C1819      C1820   1.413       .  A
C1820      N1821   1.439       .  S
N1821      H1825   1.046       .  S
N1821      H1826   1.044       .  S
N1824      H1827   1.045       .  S
N1824      H1828   1.045       .  S
C1829      C1830   1.402       .  A
C1829      C1834   1.395       .  A
C1829      H2576   1.084       .  S
C1830      C1831   1.414       .  A
C1831      C1832   1.406       .  A
C1831      N1838   1.437       .  S
C1832      C1833   1.403       .  A
C1832      H1837   1.084       .  S
C1833      C1834   1.406       .  A
C1834      N2575   1.433       .  S
N1835      C2574   1.432       .  S
N1835      H2579   1.046       .  S
N1835      H2580   1.046       .  S
H1836      C2569   1.084       .  S
N1838      H1841   1.046       .  S
N1838      H1842   1.046       .  S
H1839      N2575   1.045       .  S
H1840      N2575   1.046       .  S
C1843      C2584   1.404   1_545  A
C1843      C1848   1.402       .  A
C1843      H1850   1.082       .  S
C1844      C2583   1.405       .  A
C1844      C1845   1.411       .  A
C1845      C1846   1.401       .  A
C1845      N1852   1.432       .  S
C1846      C1847   1.400       .  A
C1846      H1851   1.083       .  S
C1847      C2588   1.405       .  A
C1848      C2587   1.409   1_545  A
C1848      N1849   1.438       .  S
N1849      H1853   1.046       .  S
N1849      H1854   1.045       .  S
N1852      H1855   1.046       .  S
N1852      H1856   1.046       .  S
C1857      C1858   1.404       .  A
C1857      C1862   1.401       .  A
C1857      H1864   1.084       .  S
C1858      C2599   1.413       .  A
C1859      C2598   1.411   1_545  A
C1859      C1860   1.402       .  A
C1859      N1866   1.431       .  S
C1860      C2601   1.403   1_545  A
C1860      H1865   1.084       .  S
C1861      C2600   1.402       .  A
C1861      C1862   1.417       .  A
C1862      N1863   1.439       .  S
N1863      H1867   1.046       .  S
N1863      H1868   1.043       .  S
N1866      H1869   1.046       .  S
N1866      H1870   1.046       .  S
C1871      C1872   1.405       .  A
C1871      C1876   1.398       .  A
C1871      H1878   1.082       .  S
C1872      C2613   1.414       .  A
C1873      C2612   1.414   1_545  A
C1873      C1874   1.408       .  A
C1873      N1880   1.432       .  S
C1874      C2615   1.403   1_545  A
C1874      H1879   1.084       .  S
C1875      C2614   1.399       .  A
C1875      C1876   1.413       .  A
C1876      N1877   1.439       .  S
N1877      H1881   1.046       .  S
N1877      H1882   1.043       .  S
N1880      H1883   1.046       .  S
N1880      H1884   1.046       .  S
C1885      C1890   1.404       .  A
C1885      H1892   1.083       .  S
C1886      C1887   1.419       .  A
C1887      C1888   1.403       .  A
C1887      N1894   1.432       .  S
C1888      C1889   1.405   1_655  A
C1888      H1893   1.083       .  S
C1890      N1891   1.438       .  S
N1891      H1895   1.046       .  S
N1891      H1896   1.046       .  S
N1894      H1897   1.041       .  S
N1894      H1898   1.046       .  S
C1899      C1904   1.410       .  A
C1899      H1906   1.083       .  S
C1900      C1901   1.410       .  A
C1901      C1902   1.402       .  A
C1901      N1908   1.431       .  S
C1902      C1903   1.408   1_655  A
C1902      H1907   1.083       .  S
C1904      N1905   1.432       .  S
N1905      H1909   1.046       .  S
N1905      H1910   1.046       .  S
N1908      H1911   1.045       .  S
N1908      H1912   1.044       .  S
C1913      C1914   1.402       .  A
C1913      C1918   1.398       .  A
C1913      H1920   1.085       .  S
C1914      C1915   1.420       .  A
C1915      C1916   1.404       .  A
C1915      N1922   1.436       .  S
C1916      C1917   1.402       .  A
C1916      H1921   1.084       .  S
C1917      C1918   1.418       .  A
C1918      N1919   1.431       .  S
N1919      H1923   1.042       .  S
N1919      H1924   1.045       .  S
N1922      H1925   1.037       .  S
N1922      H1926   1.045       .  S
C1927      C1928   1.400       .  A
C1927      C1932   1.407       .  A
C1927      H1934   1.084       .  S
C1928      C1929   1.413       .  A
C1929      C1930   1.401       .  A
C1929      N1936   1.433       .  S
C1930      C1931   1.401       .  A
C1930      H1935   1.084       .  S
C1931      C1932   1.411       .  A
C1932      N1933   1.438       .  S
N1933      H1937   1.046       .  S
N1933      H1938   1.045       .  S
N1936      H1939   1.044       .  S
N1936      H1940   1.045       .  S
C1941      C1942   1.401       .  A
C1941      C1946   1.402       .  A
C1941      H1948   1.084       .  S
C1942      C1943   1.407       .  A
C1943      C1944   1.402       .  A
C1943      N1950   1.433       .  S
C1944      C1945   1.406       .  A
C1944      H1949   1.083       .  S
C1945      C1946   1.420       .  A
C1946      N1947   1.432       .  S
N1947      H1951   1.046       .  S
N1947      H1952   1.044       .  S
N1950      H1953   1.046       .  S
N1950      H1954   1.046       .  S
C1955      C1956   1.405       .  A
C1955      C1960   1.400       .  A
C1955      H1962   1.082       .  S
C1956      C1957   1.416       .  A
C1957      C1958   1.412       .  A
C1957      N1964   1.438       .  S
C1958      C1959   1.404       .  A
C1958      H1963   1.084       .  S
C1959      C1960   1.415       .  A
C1960      N1961   1.440       .  S
N1961      H1965   1.046       .  S
N1961      H1966   1.043       .  S
N1964      H1967   1.046       .  S
N1964      H1968   1.046       .  S
C1969      C1970   1.404       .  A
C1969      C1974   1.405       .  A
C1969      H1976   1.084       .  S
C1970      C1971   1.416       .  A
C1971      C1972   1.400       .  A
C1971      N1978   1.432       .  S
C1972      C1973   1.405       .  A
C1972      H1977   1.082       .  S
C1973      C1974   1.415       .  A
C1974      N1975   1.439       .  S
N1975      H1979   1.046       .  S
N1975      H1980   1.045       .  S
N1978      H1981   1.046       .  S
N1978      H1982   1.042       .  S
C1983      C1984   1.406       .  A
C1983      C1988   1.408       .  A
C1983      H1990   1.083       .  S
C1984      C1985   1.420       .  A
C1985      C1986   1.401       .  A
C1985      N1992   1.429       .  S
C1986      C1987   1.401       .  A
C1986      H1991   1.082       .  S
C1987      C1988   1.411       .  A
C1988      N1989   1.438       .  S
N1989      H1993   1.046       .  S
N1989      H1994   1.046       .  S
N1992      H1995   1.045       .  S
N1992      H1996   1.042       .  S
C1997      C1998   1.402       .  A
C1997      C2002   1.403       .  A
C1997      H2004   1.083       .  S
C1999      C2000   1.407       .  A
C1999      N2006   1.439       .  S
C2000      H2005   1.074       .  S
C2001      C2002   1.417   1_455  A
C2002      N2003   1.433       .  S
N2003      H2007   1.046       .  S
N2003      H2008   1.046       .  S
N2006      H2009   1.046       .  S
N2006      H2010   1.045       .  S
C2011      C2012   1.403       .  A
C2011      C2016   1.400       .  A
C2011      H2018   1.084       .  S
C2012      C2013   1.419   1_655  A
C2013      N2020   1.432       .  S
C2014      H2019   1.081       .  S
C2015      C2016   1.411       .  A
C2016      N2017   1.433       .  S
N2017      H2021   1.046       .  S
N2017      H2022   1.045       .  S
C2025      C2026   1.405       .  A
C2025      C2030   1.414       .  A
C2025      H2032   1.081       .  S
C2026      C2027   1.411       .  A
C2027      C2028   1.400       .  A
C2027      N2034   1.433       .  S
C2028      C2029   1.405       .  A
C2028      H2033   1.082       .  S
C2029      C2030   1.413       .  A
C2030      N2031   1.432       .  S
N2031      H2035   1.045       .  S
N2031      H2036   1.046       .  S
N2034      H2037   1.046       .  S
N2034      H2038   1.045       .  S
C2039      C2040   1.407       .  A
C2039      C2044   1.410       .  A
C2039      H2046   1.084       .  S
C2040      C2041   1.411       .  A
C2041      C2042   1.412       .  A
C2041      N2048   1.432       .  S
C2042      C2043   1.405       .  A
C2042      H2047   1.084       .  S
C2043      C2044   1.409       .  A
C2044      N2045   1.437       .  S
N2045      H2049   1.046       .  S
N2045      H2050   1.046       .  S
N2048      H2051   1.045       .  S
N2048      H2052   1.046       .  S
C2053      C2794   1.401       .  A
C2053      C2058   1.398       .  A
C2053      H2060   1.084       .  S
C2054      C2793   1.401       .  A
C2054      C2055   1.410       .  A
C2055      C2056   1.409       .  A
C2055      N2062   1.432       .  S
C2056      C2057   1.406       .  A
C2056      H2061   1.083       .  S
C2057      C2798   1.416       .  A
C2058      C2797   1.415   1_545  A
C2058      N2059   1.433       .  S
N2059      H2063   1.046       .  S
N2059      H2064   1.046       .  S
N2062      H2065   1.045       .  S
N2062      H2066   1.045       .  S
C2067      C2068   1.401       .  A
C2067      C2072   1.403       .  A
C2067      H2074   1.084       .  S
C2068      C2069   1.414       .  A
C2069      C2070   1.403       .  A
C2069      N2816   1.432       .  S
C2070      C2071   1.403       .  A
C2070      H2815   1.084       .  S
C2071      C2072   1.416       .  A
C2072      N2073   1.433       .  S
N2073      H2077   1.044       .  S
N2073      H2078   1.045       .  S
H2075      C2810   1.084       .  S
N2076      C2809   1.439       .  S
N2076      H2819   1.043       .  S
N2076      H2820   1.046   1_545  S
H2079      N2816   1.045       .  S
H2080      N2816   1.045       .  S
C2081      C2082   1.412       .  A
C2081      C2086   1.406       .  A
C2081      H2088   1.074       .  S
C2082      C2083   1.419       .  A
C2083      C2084   1.401       .  A
C2083      N2090   1.434       .  S
C2084      C2085   1.399       .  A
C2084      H2089   1.083       .  S
C2085      C2086   1.408       .  A
C2086      N2087   1.439       .  S
N2087      H2091   1.045       .  S
N2087      H2092   1.046       .  S
N2090      H2093   1.046       .  S
N2090      H2094   1.046       .  S
C2095      C2096   1.402       .  A
C2095      C2100   1.406       .  A
C2095      H2102   1.084       .  S
C2096      C2097   1.417       .  A
C2097      C2098   1.401       .  A
C2097      N2104   1.440       .  S
C2098      C2099   1.405       .  A
C2098      H2103   1.084       .  S
C2099      C2100   1.411       .  A
C2100      N2101   1.431       .  S
N2101      H2105   1.046       .  S
N2101      H2106   1.046       .  S
N2104      H2107   1.043       .  S
N2104      H2108   1.046       .  S
C2109      C2110   1.404       .  A
C2109      C2114   1.398       .  A
C2109      H2116   1.083       .  S
C2110      C2111   1.412       .  A
C2111      C2112   1.407       .  A
C2111      N2118   1.438       .  S
C2112      C2113   1.403       .  A
C2112      H2117   1.083       .  S
C2113      C2114   1.415       .  A
C2114      N2115   1.440       .  S
N2115      H2119   1.046       .  S
N2115      H2120   1.043       .  S
N2118      H2121   1.046       .  S
N2118      H2122   1.046       .  S
C2123      C2124   1.402       .  A
C2123      C2128   1.402       .  A
C2123      H2130   1.084       .  S
C2124      C2125   1.410       .  A
C2125      C2126   1.406       .  A
C2125      N2132   1.436       .  S
C2126      C2127   1.404       .  A
C2126      H2131   1.084       .  S
C2127      C2128   1.413       .  A
C2128      N2129   1.431       .  S
N2129      H2133   1.046       .  S
N2129      H2134   1.046       .  S
N2132      H2135   1.046       .  S
N2132      H2136   1.045       .  S
C2137      C2138   1.408       .  A
C2137      C2142   1.404       .  A
C2137      H2144   1.082       .  S
C2138      C2139   1.415       .  A
C2139      C2140   1.401       .  A
C2139      N2146   1.431       .  S
C2140      C2141   1.396       .  A
C2140      H2145   1.084       .  S
C2141      C2142   1.404       .  A
C2142      N2143   1.432       .  S
N2143      H2147   1.046       .  S
N2143      H2148   1.045       .  S
N2146      H2149   1.045       .  S
N2146      H2150   1.046       .  S
C2151      C2152   1.403       .  A
C2151      C2156   1.407       .  A
C2151      H2158   1.084       .  S
C2152      C2153   1.413       .  A
C2153      C2154   1.394       .  A
C2153      N2160   1.435       .  S
C2154      C2155   1.405       .  A
C2154      H2159   1.084       .  S
C2155      C2156   1.413       .  A
C2156      N2157   1.437       .  S
N2157      H2161   1.046       .  S
N2157      H2162   1.046       .  S
N2160      H2163   1.044       .  S
N2160      H2164   1.043       .  S
C2165      C2166   1.402       .  A
C2165      C2170   1.403       .  A
C2165      H2172   1.084       .  S
C2166      C2907   1.409       .  A
C2167      C2906   1.410       .  A
C2167      C2908   1.403       .  A
C2167      N2174   1.438       .  S
C2168      C2907   1.401       .  A
C2168      C2169   1.405       .  A
C2168      H2913   1.083       .  S
C2169      C2170   1.416       .  A
C2170      N2171   1.432       .  S
N2171      H2175   1.045       .  S
N2171      H2176   1.045       .  S
H2173      C2908   1.083       .  S
N2174      H2177   1.046       .  S
N2174      H2178   1.046       .  S
C2179      C2920   1.399   1_545  A
C2179      C2184   1.409       .  A
C2179      H2186   1.084       .  S
C2180      C2919   1.397       .  A
C2180      C2181   1.409       .  A
C2181      C2182   1.407       .  A
C2181      N2188   1.438       .  S
C2182      C2183   1.405       .  A
C2182      H2187   1.084       .  S
C2183      C2924   1.413       .  A
C2184      C2923   1.420   1_545  A
C2184      N2185   1.438       .  S
N2185      H2189   1.046       .  S
N2185      H2190   1.046       .  S
N2188      H2191   1.046       .  S
N2188      H2192   1.046       .  S
C2193      C2194   1.414       .  A
C2193      C2198   1.409       .  A
C2193      H2200   1.075       .  S
C2194      C2195   1.417       .  A
C2195      C2196   1.401       .  A
C2195      N2202   1.433       .  S
C2196      C2197   1.400       .  A
C2196      H2201   1.084       .  S
C2197      C2198   1.411       .  A
C2198      N2199   1.438       .  S
N2199      H2203   1.046       .  S
N2199      H2204   1.046       .  S
N2202      H2205   1.046       .  S
N2202      H2206   1.045       .  S
C2207      C2208   1.403       .  A
C2207      C2212   1.405       .  A
C2207      H2214   1.084       .  S
C2208      C2209   1.409       .  A
C2209      C2210   1.403       .  A
C2209      N2216   1.438       .  S
C2210      C2211   1.406       .  A
C2210      H2215   1.083       .  S
C2211      C2212   1.418       .  A
C2212      N2213   1.432       .  S
N2213      H2217   1.046       .  S
N2213      H2218   1.042       .  S
N2216      H2219   1.045       .  S
N2216      H2220   1.046       .  S
C2221      C2222   1.536       .  S
C2221      C2227   1.536       .  S
C2221      C2225   1.544       .  S
C2221      C2934   1.541       .  S
C2222      H2229   1.086       .  S
C2223      C2224   1.551   1_545  S
C2223      C2923   1.506   1_545  S
C2224      C2228   1.539       .  S
C2224      C2226   1.542   1_565  S
C2224      H2230   1.109       .  S
C2225      H2231   1.080       .  S
C2226      C2906   1.482       .  S
C2228      C2948   1.486       .  S
C2233      C2234   1.413   1_554  A
C2233      C2864   1.485       .  S
C2234      C2892   1.476       .  S
C2235      C2236   1.399       .  A
C2235      H2240   1.085       .  S
C2236      C2237   1.407   1_556  A
C2236      C2881   1.478       .  S
C2237      C2238   1.399       .  A
C2237      C2853   1.467       .  S
C2238      H2239   1.085       .  S
C2241      C2242   1.538       .  S
C2241      C2245   1.546       .  S
C2241      C2822   1.540       .  S
C2242      H2249   1.086       .  S
C2243      C2244   1.543   1_545  S
C2243      C2794   1.488       .  S
C2244      C2248   1.540       .  S
C2244      C2246   1.541   1_565  S
C2244      H2250   1.110       .  S
C2245      H2251   1.081       .  S
C2246      C2811   1.479       .  S
C2247      H2252   1.086       .  S
C2247      C2248   1.366   1_545  D
C2248      C2836   1.485       .  S
C2253      C2254   1.544       .  S
C2253      C2259   1.529       .  S
C2254      H2261   1.080       .  S
C2254      C2255   1.368       .  D
C2255      C2256   1.542       .  S
C2255      C2766   1.490       .  S
C2256      C2260   1.539       .  S
C2256      H2262   1.110       .  S
C2257      H2263   1.086       .  S
C2257      C2258   1.371       .  D
C2258      C2780   1.499       .  S
C2259      H2264   1.087       .  S
C2259      C2260   1.362       .  D
C2265      C2266   1.411   1_554  A
C2265      C2699   1.482       .  S
C2266      C2727   1.485       .  S
C2267      C2268   1.409       .  A
C2267      H2272   1.084       .  S
C2268      C2269   1.415   1_556  A
C2268      C2713   1.496       .  S
C2269      C2270   1.404       .  A
C2269      C2682   1.484       .  S
C2270      H2271   1.085       .  S
C2273      C2310   1.468       .  S
C2273      C2895   1.492       .  S
C2273      N2291   1.355       .  A
N2274      N2291   1.324       .  A
N2274      N2296   1.318       .  A
N2274     Co2311   2.093       .  S
C2275      C2313   1.465       .  S
C2275      H2320   1.081       .  S
C2275      N2300   1.343       .  A
H2276      C2317   1.078       .  S
C2277      C2281   1.460       .  S
C2277      H2306   1.081       .  S
C2277      N2301   1.338       .  A
Co2278     N2296   2.078       .  S
Co2278     N2286   2.091       .  S
Co2278     N2318   2.094       .  S
Co2278     N2294   2.089       .  S
Co2278    Cl2322   2.455       .  S
N2279      C2317   1.341       .  A
N2279      N2286   1.318       .  A
N2279     Co2280   2.083       .  S
Co2280     N2283   2.097       .  S
Co2280     N2300   2.097       .  S
Co2280     N2287   2.087       .  S
Co2280    Cl2322   2.456       .  S
C2281      C2878   1.485       .  S
C2281      N2319   1.354       .  A
N2282      N2289   1.318       .  A
N2282      N2312   1.326       .  A
N2282     Co2315   2.092       .  S
N2283      N2301   1.319       .  A
N2283      N2319   1.326       .  A
N2284      C2313   1.352       .  A
N2284      N2294   1.324       .  A
H2285      C2310   1.078       .  S
N2286      N2307   1.324       .  A
N2287      N2305   1.320       .  A
N2287      N2292   1.328       .  A
C2288      C2316   1.464       .  S
C2288      C2769   1.489       .  S
C2288      N2292   1.352       .  A
N2289      C2304   1.341       .  A
N2289     Co2311   2.087       .  S
C2290      C2293   1.461       .  S
C2290      H2324   1.081       .  S
C2290      N2318   1.345       .  A
C2293      C2783   1.477       .  S
C2293      N2314   1.348       .  A
N2294      N2300   1.321       .  A
N2295      C2321   1.344       .  A
N2295      N2297   1.320       .  A
N2295     Co2311   2.090       .  S
N2296      C2310   1.338       .  A
N2297      N2325   1.322       .  A
N2297     Co2315   2.082       .  S
H2298      C2321   1.081       .  S
H2299      C2316   1.081       .  S
N2301     Co2315   2.074       .  S
N2302      N2314   1.325       .  A
N2302      N2318   1.321       .  A
N2302     Co2311   2.089       .  S
C2303      C2317   1.467       .  S
C2303      C2724   1.492       .  S
C2303      N2307   1.354       .  A
C2304      C2323   1.468       .  S
C2304      H2308   1.079       .  S
N2305      C2316   1.339       .  A
N2305     Co2315   2.091       .  S
C2309      C2321   1.466       .  S
C2309      C2825   1.487       .  S
C2309      N2325   1.350       .  A
Co2311    Cl2322   2.453       .  S
N2312      C2323   1.354       .  A
C2313      C2839   1.485       .  S
Co2315    Cl2322   2.446       .  S
C2323      C2710   1.492       .  S
C2326      C2363   1.464       .  S
C2326      C2951   1.487       .  S
C2326      N2344   1.355       .  A
N2327      N2344   1.325       .  A
N2327      N2349   1.320       .  A
N2327     Co2364   2.100       .  S
C2328      C2366   1.463       .  S
C2328      H2373   1.081       .  S
C2328      N2353   1.336       .  A
H2329      C2370   1.081       .  S
C2330      C2334   1.464       .  S
C2330      H2359   1.081       .  S
C2330      N2354   1.341       .  A
Co2331     N2349   2.081       .  S
Co2331     N2339   2.098       .  S
Co2331     N2371   2.086       .  S
Co2331     N2347   2.076       .  S
Co2331    Cl2375   2.455       .  S
N2332      C2370   1.337       .  A
N2332      N2339   1.320       .  A
N2332     Co2333   2.078       .  S
Co2333     N2336   2.082       .  S
Co2333     N2353   2.075       .  S
Co2333     N2340   2.079       .  S
Co2333    Cl2375   2.448       .  S
C2334      C2937   1.482       .  S
C2334      N2372   1.350       .  A
N2335      N2342   1.320       .  A
N2335      N2365   1.323       .  A
N2335     Co2368   2.081       .  S
N2336      N2354   1.321       .  A
N2336      N2372   1.325       .  A
N2337      C2366   1.349       .  A
N2337      N2347   1.323       .  A
H2338      C2363   1.079       .  S
N2339      N2360   1.329       .  A
N2340      N2358   1.317       .  A
N2340      N2345   1.325       .  A
C2341      C2369   1.465       .  S
C2341      C2685   1.486       .  S
C2341      N2345   1.351       .  A
N2342      C2357   1.342       .  A
N2342     Co2364   2.087       .  S
C2343      C2346   1.463       .  S
C2343      H2377   1.081       .  S
C2343      N2371   1.340       .  A
C2346      C2696   1.490       .  S
C2346      N2367   1.354       .  A
N2347      N2353   1.319       .  A
N2348      C2374   1.342       .  A
N2348      N2350   1.321       .  A
N2348     Co2364   2.094       .  S
N2349      C2363   1.340       .  A
N2350      N2378   1.324       .  A
N2350     Co2368   2.087       .  S
H2351      C2374   1.081       .  S
H2352      C2369   1.081       .  S
N2354     Co2368   2.094       .  S
N2355      N2367   1.327       .  A
N2355      N2371   1.319       .  A
N2355     Co2364   2.091       .  S
C2356      C2370   1.457       .  S
C2356      C2657   1.482       .  S
C2356      N2360   1.354       .  A
C2357      C2376   1.461       .  S
C2357      H2361   1.082       .  S
N2358      C2369   1.339       .  A
N2358     Co2368   2.084       .  S
C2362      C2374   1.467       .  S
C2362      C2867   1.487       .  S
C2362      N2378   1.351       .  A
Co2364    Cl2375   2.453       .  S
N2365      C2376   1.349       .  A
C2366      C2850   1.479       .  S
Co2368    Cl2375   2.448       .  S
C2376      C2671   1.479       .  S
C2379      C2808   1.474       .  S
C2379      N2397   1.350       .  A
N2380      N2397   1.326       .  A
N2380     Co2417   2.090       .  S
C2381      C2419   1.466       .  S
C2381      H2426   1.079       .  S
C2381      N2406   1.342       .  A
H2382      C2423   1.081       .  S
C2383      C2387   1.469       .  S
C2383      H2412   1.081       .  S
C2383      N2407   1.346       .  A
Co2384     N2402   2.095       .  S
Co2384     N2392   2.081       .  S
Co2384     N2424   2.071       .  S
Co2384     N2400   2.094       .  S
N2385      C2423   1.341       .  A
N2385     Co2386   2.083       .  S
Co2386     N2389   2.078       .  S
Co2386     N2406   2.083       .  S
Co2386     N2393   2.075       .  S
C2387      C2797   1.489       .  S
N2388      N2418   1.324       .  A
N2388     Co2421   2.092       .  S
N2389      N2425   1.321       .  A
N2390      N2400   1.325       .  A
H2391      C2416   1.082       .  S
N2392      N2413   1.323       .  A
N2393      N2398   1.321       .  A
C2394      C2422   1.467       .  S
C2394      C2612   1.495       .  S
N2395      C2410   1.337       .  A
N2395     Co2417   2.078       .  S
C2396      H2430   1.080       .  S
C2396      N2424   1.336       .  A
C2399      C2598   1.482       .  S
C2399      N2420   1.350       .  A
N2401      C2427   1.340       .  A
N2401     Co2417   2.080       .  S
N2402      C2416   1.343       .  A
N2403      N2431   1.326       .  A
N2403     Co2421   2.087       .  S
H2404      C2427   1.080       .  S
H2405      C2422   1.081       .  S
N2407     Co2421   2.092       .  S
N2408      N2420   1.323       .  A
N2408     Co2417   2.081       .  S
C2409      C2423   1.462       .  S
C2409      C2738   1.482       .  S
C2410      H2414   1.078       .  S
N2411      C2422   1.342       .  A
N2411     Co2421   2.093       .  S
C2415      C2643   1.488   1_455  S
C2415      N2431   1.352   1_455  A
N2418      C2429   1.353   1_655  A
C2419      C2626   1.489       .  S
Co2421    Cl2428   2.456       .  S
C2429      C2752   1.487   1_455  S
C2432      C2528   1.491   1_455  S
C2432      N2450   1.355   1_455  A
N2433      N2450   1.327       .  A
N2433     Co2470   2.096       .  S
C2434      C2472   1.463       .  S
C2434      H2479   1.081       .  S
C2434      N2459   1.341       .  A
H2435      C2476   1.082       .  S
C2436      C2440   1.467       .  S
C2436      H2465   1.081       .  S
C2436      N2460   1.344       .  A
Co2437     N2455   2.085       .  S
Co2437     N2445   2.080       .  S
Co2437     N2477   2.074       .  S
Co2437     N2453   2.083       .  S
N2438      C2476   1.347       .  A
N2438     Co2439   2.097       .  S
Co2439     N2442   2.085       .  S
Co2439     N2459   2.083       .  S
Co2439     N2446   2.094       .  S
C2440      C2514   1.476   1_655  S
N2441      N2471   1.326       .  A
N2441     Co2474   2.086       .  S
N2442      N2478   1.322       .  A
N2443      N2453   1.322       .  A
H2444      C2469   1.078       .  S
N2445      N2466   1.323       .  A
N2446      N2451   1.325       .  A
C2447      C2475   1.465       .  S
C2447      C2556   1.497       .  S
N2448      C2463   1.337       .  A
N2448     Co2470   2.079       .  S
C2449      H2483   1.080       .  S
C2449      N2477   1.340       .  A
C2452      C2542   1.488       .  S
C2452      N2473   1.355   1_455  A
N2454      C2480   1.338       .  A
N2454     Co2470   2.079       .  S
N2455      C2469   1.339       .  A
N2456      N2484   1.325       .  A
N2456     Co2474   2.094       .  S
H2457      C2480   1.081       .  S
H2458      C2475   1.081       .  S
N2460     Co2474   2.098       .  S
N2461      N2473   1.325       .  A
N2461     Co2470   2.092       .  S
C2462      C2476   1.465       .  S
C2462      C2920   1.482       .  S
C2463      H2467   1.081       .  S
N2464      C2475   1.341       .  A
N2464     Co2474   2.082       .  S
C2468      C2584   1.479       .  S
C2468      N2484   1.352       .  A
N2471      C2482   1.351       .  A
C2472      C2570   1.484       .  S
Co2474    Cl2481   2.451       .  S
C2482      C2909   1.484       .  S
C2485      C2486   1.412       .  A
C2485      C2490   1.407       .  A
C2485      C2640   1.488       .  S
C2486      C2559   1.484       .  S
C2487      H2492   1.084       .  S
C2488      C2489   1.418   1_455  A
C2488      C2545   1.490       .  S
C2489      C2490   1.409       .  A
C2489      C2629   1.496   1_655  S
C2490      H2491   1.084       .  S
C2493      C2494   1.411       .  A
C2493      C2498   1.406       .  A
C2493      C2587   1.480       .  S
C2494      C2495   1.402       .  A
C2494      C2615   1.487       .  S
C2495      C2496   1.406       .  A
C2495      H2500   1.085       .  S
C2496      C2497   1.412       .  A
C2496      C2601   1.480       .  S
C2497      C2498   1.404       .  A
C2497      C2573   1.491       .  S
C2498      H2499   1.084       .  S
C2501      C2505   1.544       .  S
C2502      H2509   1.086       .  S
C2502      C2503   1.365       .  D
C2503      C2668   1.481       .  S
C2504      C2508   1.538       .  S
C2504      C2506   1.541       .  S
C2504      H2510   1.111       .  S
C2505      H2511   1.081       .  S
C2505      C2506   1.364       .  D
C2506      C2654   1.480       .  S
C2507      H2512   1.085       .  S
C2513      C2518   1.398       .  A
C2513      H2520   1.084       .  S
C2514      C2515   1.411   1_455  A
C2515      C2516   1.402       .  A
C2515      N2522   1.432       .  S
C2516      C2517   1.405   1_655  A
C2516      H2521   1.078       .  S
C2518      N2519   1.433       .  S
N2519      H2523   1.046       .  S
N2519      H2524   1.046       .  S
N2522      H2525   1.046       .  S
N2522      H2526   1.044       .  S
C2527      C2528   1.404       .  A
C2527      C2532   1.406       .  A
C2527      H2534   1.084       .  S
C2529      C2530   1.401       .  A
C2529      N2536   1.432       .  S
C2530      H2535   1.076       .  S
C2531      C2532   1.418       .  A
C2532      N2533   1.433       .  S
N2533      H2537   1.046       .  S
N2533      H2538   1.046       .  S
N2536      H2539   1.046       .  S
N2536      H2540   1.041       .  S
C2541      C2542   1.405   1_655  A
C2541      C2546   1.404       .  A
C2541      H2548   1.083       .  S
C2543      C2544   1.404       .  A
C2543      N2550   1.432       .  S
C2544      H2549   1.083       .  S
C2545      C2546   1.411   1_455  A
C2546      N2547   1.438       .  S
N2547      H2551   1.046       .  S
N2547      H2552   1.046       .  S
N2550      H2553   1.042       .  S
N2550      H2554   1.046       .  S
C2555      C2556   1.410       .  A
C2555      C2560   1.406       .  A
C2555      H2562   1.081       .  S
C2557      C2558   1.403       .  A
C2557      N2564   1.431       .  S
C2558      H2563   1.084       .  S
C2559      C2560   1.404       .  A
C2560      N2561   1.432       .  S
N2561      H2565   1.046       .  S
N2561      H2566   1.046       .  S
N2564      H2567   1.045       .  S
N2564      H2568   1.045       .  S
C2569      C2570   1.404   1_545  A
C2569      C2574   1.401       .  A
C2570      C2571   1.414       .  A
C2571      C2572   1.409       .  A
C2571      N2578   1.437       .  S
C2572      C2573   1.405       .  A
C2572      H2577   1.083       .  S
C2573      C2574   1.408   1_565  A
N2578      H2581   1.046       .  S
N2578      H2582   1.046       .  S
C2583      C2588   1.400       .  A
C2583      H2590   1.082       .  S
C2584      C2585   1.410       .  A
C2585      C2586   1.405       .  A
C2585      N2592   1.432       .  S
C2586      C2587   1.403       .  A
C2586      H2591   1.084       .  S
C2588      N2589   1.433       .  S
N2589      H2593   1.046       .  S
N2589      H2594   1.046       .  S
N2592      H2595   1.046       .  S
N2592      H2596   1.046       .  S
C2597      C2598   1.405       .  A
C2597      C2602   1.399       .  A
C2597      H2604   1.084       .  S
C2599      C2600   1.402       .  A
C2599      N2606   1.432       .  S
C2600      H2605   1.084       .  S
C2601      C2602   1.415       .  A
C2602      N2603   1.439       .  S
N2603      H2607   1.046       .  S
N2603      H2608   1.043       .  S
N2606      H2609   1.046       .  S
N2606      H2610   1.046       .  S
C2611      C2612   1.407       .  A
C2611      C2616   1.404       .  A
C2611      H2618   1.082       .  S
C2613      C2614   1.401       .  A
C2613      N2620   1.433       .  S
C2614      H2619   1.084       .  S
C2615      C2616   1.416       .  A
C2616      N2617   1.439       .  S
N2617      H2621   1.046       .  S
N2617      H2622   1.043       .  S
N2620      H2623   1.046       .  S
N2620      H2624   1.046       .  S
C2625      C2630   1.403       .  A
C2625      H2632   1.084       .  S
C2626      C2627   1.418       .  A
C2627      C2628   1.403       .  A
C2627      N2634   1.432       .  S
C2628      C2629   1.406   1_655  A
C2628      H2633   1.083       .  S
C2630      N2631   1.433       .  S
N2631      H2635   1.046       .  S
N2631      H2636   1.046       .  S
N2634      H2637   1.042       .  S
N2634      H2638   1.046       .  S
C2639      C2644   1.407       .  A
C2639      H2646   1.084       .  S
C2640      C2641   1.415       .  A
C2641      C2642   1.402       .  A
C2641      N2648   1.433       .  S
C2642      C2643   1.406       .  A
C2642      H2647   1.084       .  S
C2644      N2645   1.436       .  S
N2645      H2649   1.046       .  S
N2645      H2650   1.046       .  S
N2648      H2651   1.044       .  S
N2648      H2652   1.045       .  S
C2653      C2654   1.399       .  A
C2653      C2658   1.400       .  A
C2653      H2660   1.084       .  S
C2654      C2655   1.412       .  A
C2655      C2656   1.404       .  A
C2655      N2662   1.432       .  S
C2656      C2657   1.404       .  A
C2656      H2661   1.084       .  S
C2657      C2658   1.419       .  A
C2658      N2659   1.433       .  S
N2659      H2663   1.043       .  S
N2659      H2664   1.045       .  S
N2662      H2665   1.045       .  S
N2662      H2666   1.045       .  S
C2667      C2668   1.402       .  A
C2667      C2672   1.406       .  A
C2667      H2674   1.084       .  S
C2668      C2669   1.406       .  A
C2669      C2670   1.404       .  A
C2669      N2676   1.429       .  S
C2670      C2671   1.402       .  A
C2670      H2675   1.084       .  S
C2671      C2672   1.414       .  A
C2672      N2673   1.438       .  S
N2673      H2677   1.046       .  S
N2673      H2678   1.046       .  S
N2676      H2679   1.046       .  S
N2676      H2680   1.046       .  S
C2681      C2682   1.403       .  A
C2681      C2686   1.404       .  A
C2681      H2688   1.084       .  S
C2682      C2683   1.405       .  A
C2683      C2684   1.400       .  A
C2683      N2690   1.432       .  S
C2684      C2685   1.405       .  A
C2684      H2689   1.082       .  S
C2685      C2686   1.420       .  A
C2686      N2687   1.432       .  S
N2687      H2691   1.046       .  S
N2687      H2692   1.044       .  S
N2690      H2693   1.046       .  S
N2690      H2694   1.046       .  S
C2695      C2696   1.406       .  A
C2695      C2700   1.401       .  A
C2695      H2702   1.082       .  S
C2696      C2697   1.413       .  A
C2697      C2698   1.407       .  A
C2697      N2704   1.432       .  S
C2698      C2699   1.402       .  A
C2698      H2703   1.084       .  S
C2699      C2700   1.416       .  A
C2700      N2701   1.440       .  S
N2701      H2705   1.046       .  S
N2701      H2706   1.043       .  S
N2704      H2707   1.046       .  S
N2704      H2708   1.045       .  S
C2709      C2710   1.407       .  A
C2709      C2714   1.409       .  A
C2709      H2716   1.083       .  S
C2710      C2711   1.418       .  A
C2711      C2712   1.402       .  A
C2711      N2718   1.432       .  S
C2712      C2713   1.404       .  A
C2712      H2717   1.083       .  S
C2713      C2714   1.412       .  A
C2714      N2715   1.438       .  S
N2715      H2719   1.046       .  S
N2715      H2720   1.046       .  S
N2718      H2721   1.046       .  S
N2718      H2722   1.041       .  S
C2723      C2724   1.406       .  A
C2723      C2728   1.404       .  A
C2723      H2730   1.083       .  S
C2724      C2725   1.421       .  A
C2725      C2726   1.402       .  A
C2725      N2732   1.429       .  S
C2726      C2727   1.401       .  A
C2726      H2731   1.083       .  S
C2727      C2728   1.409       .  A
C2728      N2729   1.438       .  S
N2729      H2733   1.045       .  S
N2729      H2734   1.046       .  S
N2732      H2735   1.045       .  S
N2732      H2736   1.042       .  S
C2737      C2738   1.401       .  A
C2737      C2742   1.403       .  A
C2737      H2744   1.083       .  S
C2739      C2740   1.407       .  A
C2739      N2746   1.439       .  S
C2740      H2745   1.075       .  S
C2741      C2742   1.417       .  A
C2742      N2743   1.433       .  S
N2743      H2747   1.046       .  S
N2743      H2748   1.045       .  S
N2746      H2749   1.046       .  S
N2746      H2750   1.045       .  S
C2751      C2752   1.405       .  A
C2751      C2756   1.400       .  A
C2751      H2758   1.084       .  S
C2752      C2753   1.420   1_655  A
C2753      N2760   1.431       .  S
C2754      H2759   1.082       .  S
C2755      C2756   1.408       .  A
C2756      N2757   1.433       .  S
N2757      H2761   1.046       .  S
N2757      H2762   1.045       .  S
C2765      C2766   1.404       .  A
C2765      C2770   1.412       .  A
C2765      H2772   1.082       .  S
C2766      C2767   1.409       .  A
C2767      C2768   1.401       .  A
C2767      N2774   1.433       .  S
C2768      C2769   1.404       .  A
C2768      H2773   1.082       .  S
C2769      C2770   1.414       .  A
C2770      N2771   1.432       .  S
N2771      H2775   1.046       .  S
N2771      H2776   1.046       .  S
N2774      H2777   1.046       .  S
N2774      H2778   1.046       .  S
C2779      C2780   1.410       .  A
C2779      C2784   1.407       .  A
C2779      H2786   1.083       .  S
C2780      C2781   1.413       .  A
C2781      C2782   1.408       .  A
C2781      N2788   1.431       .  S
C2782      C2783   1.402       .  A
C2782      H2787   1.084       .  S
C2783      C2784   1.407       .  A
C2784      N2785   1.438       .  S
N2785      H2789   1.046       .  S
N2785      H2790   1.046       .  S
N2788      H2791   1.045       .  S
N2788      H2792   1.046       .  S
C2793      C2798   1.402       .  A
C2793      H2800   1.084       .  S
C2794      C2795   1.410   1_545  A
C2795      C2796   1.410       .  A
C2795      N2802   1.432       .  S
C2796      C2797   1.407       .  A
C2796      H2801   1.083       .  S
C2798      N2799   1.433       .  S
N2799      H2803   1.046       .  S
N2799      H2804   1.046       .  S
N2802      H2805   1.045       .  S
N2802      H2806   1.045       .  S
C2807      C2808   1.401       .  A
C2807      C2812   1.400       .  A
C2807      H2814   1.084       .  S
C2808      C2809   1.419   1_565  A
C2809      C2810   1.404       .  A
C2810      C2811   1.400       .  A
C2811      C2812   1.412   1_545  A
C2812      N2813   1.433       .  S
N2813      H2817   1.045   1_565  S
N2813      H2818   1.045       .  S
C2821      C2822   1.410       .  A
C2821      C2826   1.405       .  A
C2821      H2828   1.075       .  S
C2822      C2823   1.419       .  A
C2823      C2824   1.406       .  A
C2823      N2830   1.433       .  S
C2824      C2825   1.402       .  A
C2824      H2829   1.083       .  S
C2825      C2826   1.413       .  A
C2826      N2827   1.439       .  S
N2827      H2831   1.045       .  S
N2827      H2832   1.046       .  S
N2830      H2833   1.046       .  S
N2830      H2834   1.046       .  S
C2835      C2836   1.403       .  A
C2835      C2840   1.409       .  A
C2835      H2842   1.083       .  S
C2836      C2837   1.411       .  A
C2837      C2838   1.404       .  A
C2837      N2844   1.438       .  S
C2838      C2839   1.404       .  A
C2838      H2843   1.083       .  S
C2839      C2840   1.411       .  A
C2840      N2841   1.432       .  S
N2841      H2845   1.046       .  S
N2841      H2846   1.045       .  S
N2844      H2847   1.046       .  S
N2844      H2848   1.045       .  S
C2849      C2850   1.404       .  A
C2849      C2854   1.393       .  A
C2849      H2856   1.081       .  S
C2850      C2851   1.416       .  A
C2851      C2852   1.405       .  A
C2851      N2858   1.438       .  S
C2852      C2853   1.400       .  A
C2852      H2857   1.084       .  S
C2853      C2854   1.411       .  A
C2854      N2855   1.440       .  S
N2855      H2859   1.045       .  S
N2855      H2860   1.043       .  S
N2858      H2861   1.046       .  S
N2858      H2862   1.046       .  S
C2863      C2864   1.402       .  A
C2863      C2868   1.408       .  A
C2863      H2870   1.083       .  S
C2864      C2865   1.406       .  A
C2865      C2866   1.402       .  A
C2865      N2872   1.433       .  S
C2866      C2867   1.406       .  A
C2866      H2871   1.084       .  S
C2867      C2868   1.415       .  A
C2868      N2869   1.436       .  S
N2869      H2873   1.046       .  S
N2869      H2874   1.046       .  S
N2872      H2875   1.046       .  S
N2872      H2876   1.045       .  S
C2877      C2878   1.407       .  A
C2877      C2882   1.402       .  A
C2877      H2884   1.082       .  S
C2878      C2879   1.412       .  A
C2879      C2880   1.405       .  A
C2879      N2886   1.431       .  S
C2880      C2881   1.400       .  A
C2880      H2885   1.084       .  S
C2881      C2882   1.405       .  A
C2882      N2883   1.432       .  S
N2883      H2887   1.045       .  S
N2883      H2888   1.045       .  S
N2886      H2889   1.045       .  S
N2886      H2890   1.045       .  S
C2891      C2892   1.398       .  A
C2891      C2896   1.406       .  A
C2891      H2898   1.084       .  S
C2892      C2893   1.406       .  A
C2893      C2894   1.397       .  A
C2893      N2900   1.432       .  S
C2894      C2895   1.409       .  A
C2894      H2899   1.083       .  S
C2895      C2896   1.420       .  A
C2896      N2897   1.435       .  S
N2897      H2901   1.046       .  S
N2897      H2902   1.046       .  S
N2900      H2903   1.044       .  S
N2900      H2904   1.046       .  S
C2905      C2906   1.402   1_565  A
C2905      C2910   1.405       .  A
C2905      H2912   1.084       .  S
C2907      N2914   1.438       .  S
C2908      C2909   1.404   1_545  A
C2909      C2910   1.417       .  A
C2910      N2911   1.432       .  S
N2911      H2915   1.045       .  S
N2911      H2916   1.046       .  S
N2914      H2917   1.046       .  S
N2914      H2918   1.046       .  S
C2919      C2924   1.403       .  A
C2919      H2926   1.084       .  S
C2920      C2921   1.410       .  A
C2921      C2922   1.412       .  A
C2921      N2928   1.438       .  S
C2922      C2923   1.409       .  A
C2922      H2927   1.082       .  S
C2924      N2925   1.437       .  S
N2925      H2929   1.046       .  S
N2925      H2930   1.046       .  S
N2928      H2931   1.046       .  S
N2928      H2932   1.046       .  S
C2933      C2934   1.413       .  A
C2933      C2938   1.408       .  A
C2933      H2940   1.075       .  S
C2934      C2935   1.418       .  A
C2935      C2936   1.404       .  A
C2935      N2942   1.433       .  S
C2936      C2937   1.401       .  A
C2936      H2941   1.084       .  S
C2937      C2938   1.408       .  A
C2938      N2939   1.438       .  S
N2939      H2943   1.045       .  S
N2939      H2944   1.046       .  S
N2942      H2945   1.046       .  S
N2942      H2946   1.046       .  S
C2947      C2948   1.402       .  A
C2947      C2952   1.404       .  A
C2947      H2954   1.084       .  S
C2948      C2949   1.409       .  A
C2949      C2950   1.401       .  A
C2949      N2956   1.433       .  S
C2950      C2951   1.404       .  A
C2950      H2955   1.084       .  S
C2951      C2952   1.420       .  A
C2952      N2953   1.432       .  S
N2953      H2957   1.045       .  S
N2953      H2958   1.042       .  S
N2956      H2959   1.046       .  S
N2956      H2960   1.045       .  S
