geometry optimzed in LAMMPS
_audit_creation_date              2020-12-01 
_audit_creation_method            'lammps2cif' 
_symmetry_space_group_name_H-M    'P1' 
_symmetry_Int_Tables_number       1 
_symmetry_cell_setting            triclinic 
loop_ 
_symmetry_equiv_pos_as_xyz 
  x,y,z 
_cell_length_a                    46.06421903 
_cell_length_b                    46.19227551229675 
_cell_length_c                    28.687229700364373 
_cell_angle_alpha                 90.02288459408062 
_cell_angle_beta                  90.0562036688499 
_cell_angle_gamma                 119.89304111470287 
loop_ 
_atom_site_label 
_atom_site_type_symbol 
_atom_site_fract_x 
_atom_site_fract_y 
_atom_site_fract_z 
_atom_site_charge 
Zn1        Zn  0.46617503  0.10820590  0.17030472     1.49700
Zn2        Zn  0.39428173  0.09440405  0.12980127     1.49400
Zn3        Zn  0.39968652  0.03930548  0.18569717     1.49100
Zn4        Zn  0.40594313  0.10495962  0.23570294     1.49500
O5          O  0.41742461  0.08699709  0.18070490    -1.84200
O6          O  0.47814324  0.12979643  0.10383509    -0.74800
O7          O  0.36582407  0.05337346  0.09224794    -0.74600
O8          O  0.43500036  0.02567221  0.19212523    -0.74100
O9          O  0.42805062  0.12280630  0.08601390    -0.74800
O10         O  0.48214300  0.07305097  0.17783762    -0.74400
O11         O  0.37185969  0.01460411  0.12952827    -0.75000
O12         O  0.37399505  0.06839466  0.27880222    -0.74400
O13         O  0.36858620  0.11811880  0.14626782    -0.75200
O14         O  0.36958345  0.02428647  0.24076632    -0.74500
O15         O  0.38467747  0.13306577  0.21931149    -0.75000
O16         O  0.44677322  0.13563459  0.27013170    -0.74900
O17         O  0.48807281  0.14449926  0.22102762    -0.74700
C18         C  0.45860737  0.13400462  0.07641121     0.77100
C19         C  0.36026721  0.02367295  0.09584991     0.77600
C20         C  0.46661238  0.04160465  0.18660100     0.76500
C21         C  0.36123691  0.03702498  0.27394005     0.76900
C22         C  0.36956950  0.13414495  0.18283789     0.78000
C23         C  0.47740399  0.15118197  0.25853915     0.77100
C24         C  0.05452076  0.22389820  0.30268176     0.80200
N25         N  0.04505712  0.22636597  0.34643029    -0.78100
C26         C  0.51360538  0.20566360  0.36178612     0.82600
N27         N  0.49101972  0.18160637  0.33296902    -0.78100
C28         C  0.50071546  0.17795166  0.28942223     0.82700
N29         N  0.03225174  0.19913010  0.27457141    -0.79800
C30         C  0.28815597  0.45915103  0.31021587     0.80200
N31         N  0.31481067  0.48254193  0.28679006    -0.78100
C32         C  0.33404816  0.01369758  0.30396309     0.82600
N33         N  0.32710554  0.02193332  0.34667850    -0.78100
C34         C  0.30040795  0.99813452  0.37108244     0.82700
N35         N  0.28127262  0.46720076  0.35243818    -0.79800
C36         C  0.95139638  0.17215974  0.96849726     0.80200
N37         N  0.97747810  0.17520405  0.94321026    -0.78100
C38         C  0.99929091  0.16661960  0.96144140     0.82600
N39         N  0.99510077  0.15442579  0.00583108    -0.78100
C40         C  0.46873200  0.15118723  0.03131459     0.82700
N41         N  0.44742223  0.16015651  0.01228719    -0.79800
C42         C  0.28197826  0.45551378  0.04925308     0.80200
N43         N  0.28965168  0.45561261  0.00361427    -0.78100
C44         C  0.32091150  0.47649850  0.98752180     0.82600
N45         N  0.34494904  0.99802177  0.01765167    -0.78100
C46         C  0.33702024  0.99865545  0.06324062     0.82700
N47         N  0.30584704  0.97733388  0.07863996    -0.79800
Zn48       Zn  0.26265489  0.24293983  0.57153666     1.49700
Zn49       Zn  0.27065245  0.30453831  0.50893526     1.49400
Zn50       Zn  0.27107348  0.24191106  0.46148457     1.49100
Zn51       Zn  0.20489252  0.23942713  0.50435705     1.49500
O52         O  0.25253013  0.25676424  0.51249762    -1.84200
O53         O  0.29107406  0.28450004  0.61044212    -0.74800
O54         O  0.28973217  0.31884212  0.44502801    -0.74600
O55         O  0.29477168  0.21692315  0.48461351    -0.74100
O56         O  0.30424471  0.32571539  0.55922116    -0.74800
O57         O  0.28893106  0.21683606  0.56164701    -0.74400
O58         O  0.30285264  0.28092229  0.42104974    -0.75000
O59         O  0.19446117  0.22495891  0.43788220    -0.74400
O60         O  0.23717463  0.32088038  0.51839927    -0.75200
O61         O  0.23464029  0.21478341  0.41407192    -0.74500
O62         O  0.18929023  0.27337927  0.51458052    -0.75000
O63         O  0.17940807  0.20315207  0.55119718    -0.74900
O64         O  0.21857158  0.21456285  0.60549438    -0.74700
C65         C  0.30720455  0.31526617  0.59902968     0.77100
C66         C  0.30176106  0.30762169  0.41463075     0.77600
C67         C  0.29991109  0.20915634  0.52529298     0.76500
C68         C  0.20779100  0.21568152  0.40674508     0.76900
C69         C  0.20533838  0.30497796  0.51936721     0.78000
C70         C  0.18806268  0.19954633  0.59206420     0.77100
Zn71       Zn  0.30874066  0.44060795  0.84278612     1.49700
Zn72       Zn  0.36567474  0.43375245  0.90452945     1.49400
Zn73       Zn  0.30832680  0.37212491  0.83855136     1.49100
Zn74       Zn  0.37186603  0.43317022  0.80386474     1.49500
O75         O  0.33734027  0.42024098  0.84919552    -1.84200
O76         O  0.31440091  0.46599556  0.90535436    -0.74800
O77         O  0.35818758  0.39238635  0.93491181    -0.74600
O78         O  0.25786265  0.35675470  0.84731169    -0.74100
O79         O  0.35026238  0.45655689  0.94647187    -0.74800
O80         O  0.25787224  0.40469728  0.84212368    -0.74400
O81         O  0.32358626  0.35068120  0.88749678    -0.75000
O82         O  0.36985278  0.39429238  0.77338597    -0.74400
O83         O  0.41662889  0.46320518  0.89782230    -0.75200
O84         O  0.31522962  0.36057077  0.77076437    -0.74500
O85         O  0.42026302  0.46201370  0.82154691    -0.75000
O86         O  0.36207219  0.45703407  0.75728092    -0.74900
O87         O  0.32135984  0.46704386  0.77899702    -0.74700
C88         C  0.33005683  0.46758058  0.94327551     0.77100
C89         C  0.34224860  0.36168181  0.92380203     0.77600
C90         C  0.24191684  0.37286890  0.84628639     0.76500
C91         C  0.34407718  0.37265550  0.75206199     0.76900
C92         C  0.43419504  0.47125950  0.86097541     0.78000
C93         C  0.34334832  0.46931795  0.74937639     0.77100
C94         C  0.38684367  0.38440754  0.63975250     0.80200
N95         N  0.38004887  0.38642765  0.68509898    -0.78100
C96         C  0.34945059  0.36576587  0.70371942     0.82600
N97         N  0.32495964  0.34199861  0.67639399    -0.78100
C98         C  0.33187127  0.33971228  0.63068812     0.82700
N99         N  0.36244783  0.36091469  0.61287355    -0.79800
C100        C  0.38903588  0.00989328  0.64260297     0.80200
N101        N  0.36577150  0.01247414  0.61709109    -0.78100
C102        C  0.33476253  0.50209006  0.63431647     0.82600
N103        N  0.32653078  0.48881233  0.67822998    -0.78100
C104        C  0.35011070  0.48671109  0.70434182     0.82700
N105        N  0.38093106  0.99729442  0.68607250    -0.79800
C106        C  0.33433559  0.28354656  0.96789655     0.80200
N107        N  0.34550233  0.29232428  0.01236628    -0.78100
C108        C  0.35710021  0.32402473  0.02776314     0.82600
N109        N  0.35747250  0.34724325  0.99845427    -0.78100
C110        C  0.34526428  0.33824722  0.95441404     0.82700
N111        N  0.33381593  0.30665630  0.93960930    -0.79800
Zn112      Zn  0.47967391  0.24554979  0.57054789     1.49700
Zn113      Zn  0.03264833  0.30377555  0.50438583     1.49400
Zn114      Zn  0.03290682  0.23893154  0.50503943     1.49100
Zn115      Zn  0.46937502  0.24019660  0.46003640     1.49500
O116        O  0.50280995  0.25641464  0.51105721    -1.84200
O117        O  0.49536936  0.28927315  0.60551472    -0.74800
O118        O  0.08212619  0.32046333  0.51716065    -0.74600
O119        O  0.02177296  0.20448827  0.55438065    -0.74100
O120        O  0.01985358  0.32767932  0.54959534    -0.74800
O121        O  0.49400061  0.21692100  0.60734130    -0.74400
O122        O  0.08261181  0.27300256  0.51446716    -0.75000
O123        O  0.47725103  0.21056199  0.41561415    -0.74400
O124        O  0.02941026  0.31532721  0.43866415    -0.75200
O125        O  0.02801199  0.22209989  0.43951948    -0.74500
O126        O  0.47776676  0.27804706  0.41597387    -0.75000
O127        O  0.42100451  0.21638496  0.48387646    -0.74900
O128        O  0.42725063  0.22002723  0.56107778    -0.74700
C129        C  0.00909191  0.31938229  0.59102365     0.77100
C130        C  0.09809834  0.30462406  0.51901444     0.77600
C131        C  0.00909344  0.20130976  0.59484491     0.76500
C132        C  0.50509680  0.21168085  0.40858608     0.76900
C133        C  0.50616992  0.30377495  0.40830480     0.78000
C134        C  0.40839744  0.21045954  0.52475958     0.77100
Zn135      Zn  0.37058943  0.30733221  0.17250549     1.49700
Zn136      Zn  0.43587314  0.30715499  0.17026478     1.49400
Zn137      Zn  0.43482965  0.37065718  0.12566411     1.49100
Zn138      Zn  0.43156784  0.36262364  0.23535368     1.49500
O139        O  0.41854560  0.33758999  0.17714794    -1.84200
O140        O  0.35440323  0.25755340  0.18239072    -0.74800
O141        O  0.45051142  0.31047288  0.10391013    -0.74600
O142        O  0.39636648  0.36131335  0.08254454    -0.74100
O143        O  0.40215816  0.25740798  0.17977097    -0.74800
O144        O  0.35859164  0.31017960  0.10618266    -0.74400
O145        O  0.46306114  0.36131724  0.08008230    -0.75000
O146        O  0.45747400  0.41510744  0.22489204    -0.74400
O147        O  0.47190983  0.31914527  0.21777030    -0.75200
O148        O  0.45937304  0.42006609  0.14770439    -0.74500
O149        O  0.46109848  0.34857476  0.27012264    -0.75000
O150        O  0.38892166  0.34854336  0.27273504    -0.74900
O151        O  0.34767157  0.32002383  0.22131943    -0.74700
C152        C  0.37038676  0.24166724  0.18321324     0.77100
C153        C  0.46056988  0.33294512  0.07261668     0.77600
C154        C  0.37078984  0.33277310  0.07501176     0.76500
C155        C  0.46625777  0.43347573  0.18820013     0.76900
C156        C  0.47624124  0.33300124  0.25758863     0.78000
C157        C  0.35799544  0.33356171  0.26122487     0.77100
C158        C  0.29073212  0.34561198  0.30915326     0.80200
N159        N  0.31299370  0.34441659  0.27946548    -0.78100
C160        C  0.33345392  0.33295686  0.29398326     0.82600
N161        N  0.33127421  0.32175768  0.33855148    -0.78100
C162        C  0.30904998  0.32309376  0.36846344     0.82700
N163        N  0.28945069  0.33536417  0.35358989    -0.79800
C164        C  0.05592324  0.34522763  0.30414327     0.80200
N165        N  0.04658940  0.33236761  0.34752225    -0.78100
C166        C  0.51442949  0.31882097  0.36193147     0.82600
N167        N  0.49099007  0.31844846  0.33275947    -0.78100
C168        C  0.50024969  0.33168736  0.28927647     0.82700
N169        N  0.03244991  0.34480577  0.27523168    -0.79800
Zn170      Zn  0.23861219  0.47973457  0.58209876     1.49700
Zn171      Zn  0.23392073  0.03752552  0.51941221     1.49400
Zn172      Zn  0.30000669  0.03501197  0.51391144     1.49100
Zn173      Zn  0.22921920  0.47399286  0.47931069     1.49500
O174        O  0.25205696  0.00748618  0.52581478    -1.84200
O175        O  0.21016811  0.49186385  0.62032200    -0.74800
O176        O  0.26936016  0.08695784  0.52629881    -0.74600
O177        O  0.32086499  0.02081774  0.56566501    -0.74100
O178        O  0.20084418  0.02478230  0.57240308    -0.74800
O179        O  0.28000389  0.48979010  0.61652059    -0.74400
O180        O  0.31699226  0.08621990  0.52061089    -0.75000
O181        O  0.25959253  0.48418262  0.42695765    -0.74400
O182        O  0.21410579  0.03166777  0.45311893    -0.75200
O183        O  0.31039335  0.02533337  0.44644562    -0.74500
O184        O  0.19054335  0.47706421  0.45756617    -0.75000
O185        O  0.21151359  0.42579198  0.49531357    -0.74900
O186        O  0.21202378  0.42807705  0.57202930    -0.74700
C187        C  0.19562300  0.50837538  0.61045745     0.77100
C188        C  0.30129126  0.10244492  0.52519424     0.77600
C189        C  0.31056802  0.50459012  0.60411868     0.76500
C190        C  0.29011258  0.00376506  0.41711037     0.76900
C191        C  0.19655498  0.00291484  0.43485456     0.78000
C192        C  0.20440070  0.41114489  0.53436396     0.77100
Zn193      Zn  0.03876040  0.14256189  0.84206863     1.49700
Zn194      Zn  0.10534479  0.14397518  0.84196496     1.49400
Zn195      Zn  0.10143641  0.20562073  0.79724131     1.49100
Zn196      Zn  0.09849905  0.19653207  0.90781573     1.49500
O197        O  0.08629340  0.17263623  0.84836422    -1.84200
O198        O  0.02392134  0.09344212  0.85229948    -0.74800
O199        O  0.12317370  0.15010698  0.77688038    -0.74600
O200        O  0.06329994  0.19779230  0.75400124    -0.74100
O201        O  0.07217179  0.09409660  0.85051942    -0.74800
O202        O  0.02551038  0.14648347  0.77648216    -0.74400
O203        O  0.13185651  0.19967560  0.75288268    -0.75000
O204        O  0.12611610  0.24849200  0.89723132    -0.74400
O205        O  0.13967985  0.15552460  0.89153171    -0.75200
O206        O  0.12579576  0.25305730  0.81998789    -0.74500
O207        O  0.12591101  0.18140287  0.94565992    -0.75000
O208        O  0.05568969  0.18364482  0.94357343    -0.74900
O209        O  0.01573754  0.15427709  0.89091831    -0.74700
C210        C  0.04041190  0.07809871  0.85416652     0.77100
C211        C  0.13263392  0.17292049  0.74605578     0.77600
C212        C  0.03707352  0.16983655  0.74632365     0.76500
C213        C  0.13429297  0.26636741  0.86014321     0.76900
C214        C  0.14218018  0.16717906  0.93253894     0.78000
C215        C  0.02508271  0.16809113  0.93077728     0.77100
C216        C  0.11590823  0.12377710  0.63989073     0.80200
N217        N  0.13934530  0.14577490  0.60992793    -0.78100
C218        C  0.16202251  0.17709503  0.62436393     0.82600
N219        N  0.16113933  0.18681762  0.66905316    -0.78100
C220        C  0.13778617  0.16460240  0.69894774     0.82700
N221        N  0.11582729  0.13360849  0.68407231    -0.79800
C222        C  0.50129815  0.12301910  0.63784399     0.80200
N223        N  0.51181802  0.13107218  0.68255789    -0.78100
C224        C  0.02237870  0.16217287  0.69944313     0.82600
N225        N  0.02196075  0.18573545  0.67132062    -0.78100
C226        C  0.01074885  0.17751457  0.62658700     0.82700
N227        N  0.50087483  0.14650580  0.61024677    -0.79800
Zn228      Zn  0.14072098  0.10764940  0.17357661     1.49700
Zn229      Zn  0.13867917  0.03946100  0.19186061     1.49400
Zn230      Zn  0.19868180  0.09399390  0.13394406     1.49100
Zn231      Zn  0.19857591  0.10562760  0.23970365     1.49500
O232        O  0.16860326  0.08693243  0.18518005    -1.84200
O233        O  0.08981696  0.07275048  0.18073569    -0.74800
O234        O  0.14198041  0.01452282  0.13670412    -0.74600
O235        O  0.19323518  0.12235214  0.08989769    -0.74100
O236        O  0.08951249  0.02558954  0.19696754    -0.74800
O237        O  0.14981389  0.12886568  0.10706512    -0.74400
O238        O  0.18549702  0.05277617  0.09673517    -0.75000
O239        O  0.24800260  0.13337953  0.22275091    -0.74400
O240        O  0.15378312  0.02512273  0.24774740    -0.75200
O241        O  0.24817784  0.11738376  0.15005150    -0.74500
O242        O  0.19366152  0.06978685  0.28467959    -0.75000
O243        O  0.18866299  0.13696702  0.27234587    -0.74900
O244        O  0.15496701  0.14413712  0.22329661    -0.74700
C245        C  0.07385898  0.04142378  0.18999966     0.77100
C246        C  0.16166017  0.02310993  0.10198643     0.77600
C247        C  0.17368344  0.13328396  0.07991045     0.76500
C248        C  0.26372752  0.13390535  0.18607830     0.76900
C249        C  0.17488121  0.03836231  0.28083876     0.78000
C250        C  0.17295835  0.15181563  0.26028802     0.77100
C251        C  0.16839242  0.22506139  0.30050645     0.80200
N252        N  0.18181822  0.22942416  0.34379605    -0.78100
C253        C  0.19326954  0.20937838  0.35995131     0.82600
N254        N  0.19115333  0.18441519  0.33261477    -0.78100
C255        C  0.17660534  0.17915835  0.28975007     0.82700
N256        N  0.16532771  0.19937790  0.27414434    -0.79800
C257        C  0.16878139  0.46079564  0.32161967     0.80200
N258        N  0.16916119  0.48494450  0.29496397    -0.78100
C259        C  0.17816647  0.01544822  0.31242887     0.82600
N260        N  0.18738127  0.02252708  0.35811560    -0.78100
C261        C  0.18635336  0.99794758  0.38568880     0.82700
N262        N  0.17683857  0.46738579  0.36718756    -0.79800
C263        C  0.21979943  0.17195464  0.97305453     0.80200
N264        N  0.21148582  0.16026320  0.01684161    -0.78100
C265        C  0.18081863  0.15055447  0.03485127     0.82600
N266        N  0.15762495  0.15314946  0.00841461    -0.78100
C267        C  0.16599176  0.16525743  0.96397548     0.82700
N268        N  0.19671451  0.17423204  0.94666506    -0.79800
Zn269      Zn  0.08953464  0.39597999  0.89925811     1.49700
Zn270      Zn  0.03740432  0.40451789  0.83708358     1.49400
Zn271      Zn  0.10588840  0.46888424  0.85860425     1.49100
Zn272      Zn  0.10437263  0.40797158  0.79585302     1.49500
O273        O  0.08461218  0.41996383  0.84806879    -1.84200
O274        O  0.04561785  0.36763525  0.93064738    -0.74800
O275        O  0.02431611  0.44020081  0.84554525    -0.74600
O276        O  0.13245852  0.48165738  0.92159599    -0.74100
O277        O  0.00824595  0.36847612  0.88211626    -0.74800
O278        O  0.11609778  0.42973803  0.94485458    -0.74400
O279        O  0.07198980  0.48538576  0.86415074    -0.75000
O280        O  0.13217430  0.44899977  0.75897976    -0.74400
O281        O  0.02769045  0.38953702  0.77114322    -0.75200
O282        O  0.12995444  0.49015173  0.79705453    -0.74500
O283        O  0.06827612  0.37968243  0.74819053    -0.75000
O284        O  0.13311033  0.38679988  0.81414442    -0.74900
O285        O  0.11473672  0.37031374  0.88595400    -0.74700
C286        C  0.01563177  0.35885067  0.91954248     0.77100
C287        C  0.04055831  0.47094243  0.85668373     0.77600
C288        C  0.13145600  0.46093186  0.95216805     0.76500
C289        C  0.13700443  0.47855260  0.76090584     0.76900
C290        C  0.04113491  0.38000758  0.74056756     0.78000
C291        C  0.13271190  0.37150880  0.85136739     0.77100
C292        C  0.50389239  0.39143097  0.63398038     0.80200
N293        N  0.51578652  0.39423619  0.67787715    -0.78100
C294        C  0.02678175  0.37375670  0.69374970     0.82600
N295        N  0.02488389  0.34909198  0.66586760    -0.78100
C296        C  0.01221056  0.34563974  0.62202838     0.82700
N297        N  0.50231967  0.36698028  0.60621229    -0.79800
C298        C  0.12702597  0.01845761  0.65606997     0.80200
N299        N  0.12484401  0.00795283  0.70090192    -0.78100
C300        C  0.14554996  0.49707097  0.71691342     0.82600
N301        N  0.16826427  0.49621639  0.68743660    -0.78100
C302        C  0.17136854  0.50810321  0.64325304     0.82700
N303        N  0.15081514  0.01901094  0.62818097    -0.79800
C304        C  0.44516063  0.28230939  0.96648978     0.80200
N305        N  0.96781073  0.30500370  0.93658077    -0.78100
C306        C  0.98898281  0.33664445  0.95065853     0.82600
N307        N  0.48759466  0.34623953  0.99509717    -0.78100
C308        C  0.46494822  0.32371206  0.02529987     0.82700
N309        N  0.44430458  0.29190616  0.01092058    -0.79800
C310        C  0.16798662  0.95184418  0.06037329     0.80200
N311        N  0.15757094  0.44937475  0.01581347    -0.78100
C312        C  0.14805102  0.47045902  0.99778242     0.82600
N313        N  0.14884859  0.99493653  0.02524643    -0.78100
C314        C  0.15914126  0.99733206  0.07055157     0.82700
N315        N  0.16865601  0.97601030  0.08752099    -0.79800
C316        C  0.48513383  0.02275423  0.18962419     0.80200
N317        N  0.46815415  0.48850030  0.19043375    -0.78100
C318        C  0.48493850  0.47103678  0.19197644     0.82600
N319        N  0.01917321  0.48844059  0.19240817    -0.78100
C320        C  0.03649067  0.02267042  0.19155475     0.82700
N321        N  0.01922938  0.03949958  0.18978570    -0.81000
C322        C  0.31912434  0.19098456  0.52963362     0.80200
N323        N  0.35337422  0.20816799  0.52922682    -0.78100
C324        C  0.37110281  0.19163013  0.52932381     0.82600
N325        N  0.35416394  0.15749993  0.52825050    -0.78100
C326        C  0.31994645  0.13986375  0.52831820     0.82700
N327        N  0.30271048  0.15689763  0.52882052    -0.79800
C328        C  0.18667803  0.32334686  0.52523682     0.80200
N329        N  0.20335279  0.35720537  0.53087135    -0.78100
C330        C  0.18618909  0.37409787  0.53466543     0.82600
N331        N  0.15211669  0.35695947  0.53105047    -0.78100
C332        C  0.13510938  0.32312541  0.52532814     0.82700
N333        N  0.15260983  0.30657502  0.52247000    -0.79800
C334        C  0.02240557  0.48993513  0.86016667     0.80200
N335        N  0.48832553  0.47321100  0.86182421    -0.78100
C336        C  0.47110713  0.49005189  0.86330151     0.82600
N337        N  0.48813699  0.02399453  0.86140530    -0.78100
C338        C  0.02225851  0.04118094  0.85932102     0.82700
N339        N  0.03926760  0.02398565  0.85888011    -0.79800
C340        C  0.15250027  0.35400815  0.85415032     0.80200
N341        N  0.18659070  0.37088965  0.84892320    -0.78100
C342        C  0.20432607  0.35431646  0.85073741     0.82600
N343        N  0.18727280  0.32042627  0.85670193    -0.78100
C344        C  0.15328817  0.30337872  0.86223511     0.82700
N345        N  0.13620885  0.32036413  0.86072657    -0.79800
C346        C  0.35175512  0.15315913  0.18358999     0.80200
N347        N  0.31780988  0.13634968  0.18328059    -0.78100
C348        C  0.30059792  0.15304857  0.18565385     0.82600
N349        N  0.31760127  0.18711840  0.18698251    -0.78100
C350        C  0.35181132  0.20445475  0.18616592     0.82700
N351        N  0.36875370  0.18720322  0.18495192    -0.79800
C352        C  0.10681431  0.03319010  0.63927960    -0.00200
C353        C  0.08652457  0.03775301  0.67134836    -0.12100
C354        C  0.08072132  0.06442617  0.66596539     0.02000
C355        C  0.09735672  0.08755737  0.62950805    -0.00300
C356        C  0.10785478  0.07667651  0.59081246    -0.12000
C357        C  0.11278603  0.04935386  0.59536786     0.01900
H358        H  0.07879018  0.02340390  0.70333372     0.14900
H359        H  0.11739382  0.09235217  0.56013426     0.14900
C360        C  0.12736255  0.04131320  0.55638200     0.36500
C361        C  0.06293619  0.07048341  0.70268778     0.36500
N362        N  0.13911591  0.03505882  0.52507235    -0.43800
N363        N  0.04916910  0.07537342  0.73272144    -0.43800
C364        C  0.09212775  0.36588475  0.29334946    -0.00200
C365        C  0.11534238  0.36899264  0.32773308    -0.12100
C366        C  0.14557157  0.39891330  0.33266845     0.02000
C367        C  0.15176545  0.42606341  0.30376847    -0.00300
C368        C  0.13338637  0.41935647  0.26210107    -0.12000
C369        C  0.10367154  0.38913940  0.25631374     0.01900
H370        H  0.10839917  0.34977983  0.35400310     0.14900
H371        H  0.13960066  0.43898988  0.23674779     0.14900
C372        C  0.08435001  0.38447692  0.21447715     0.36500
C373        C  0.16831230  0.40185178  0.36939979     0.36500
N374        N  0.06906825  0.38084657  0.18076969    -0.43800
N375        N  0.18669625  0.40401868  0.39850218    -0.43800
C376        C  0.31583598  0.24787784  0.95425976    -0.00200
C377        C  0.31111203  0.22407552  0.98816721    -0.12100
C378        C  0.28102803  0.19386149  0.98983767     0.02000
C379        C  0.25526708  0.18845449  0.95808237    -0.00300
C380        C  0.26419578  0.20748001  0.91702027    -0.12000
C381        C  0.29489821  0.23707466  0.91440772     0.01900
H382        H  0.32863385  0.23065286  0.01677639     0.14900
H383        H  0.24585678  0.20174017  0.88964938     0.14900
C384        C  0.30223549  0.25724972  0.87290553     0.36500
C385        C  0.27625652  0.17102952  0.02728124     0.36500
N386        N  0.30814548  0.27340801  0.83965177    -0.43800
N387        N  0.27272599  0.15282895  0.05728214    -0.43800
C388        C  0.48373363  0.08750467  0.62324547    -0.00200
C389        C  0.48007905  0.06355399  0.65638205    -0.12100
C390        C  0.45056216  0.03279896  0.65803938     0.02000
C391        C  0.42435928  0.02694407  0.62697218    -0.00300
C392        C  0.43252382  0.04620511  0.58615749    -0.12000
C393        C  0.46251789  0.07653374  0.58373026     0.01900
H394        H  0.49789976  0.07032352  0.68460505     0.14900
H395        H  0.41389388  0.04007839  0.55908173     0.14900
C396        C  0.46868922  0.09707899  0.54290766     0.36500
C397        C  0.44672598  0.00977539  0.69475764     0.36500
N398        N  0.47354726  0.11340451  0.51005879    -0.43800
N399        N  0.44393715  0.99142499  0.72416175    -0.43800
C400        C  0.42203266  0.40285485  0.62321434    -0.00200
C401        C  0.44678735  0.42404864  0.65501971    -0.12100
C402        C  0.47856637  0.42729857  0.65382834     0.02000
C403        C  0.48497541  0.40844670  0.62085421    -0.00300
C404        C  0.46415641  0.39649179  0.58140642    -0.12000
C405        C  0.43240856  0.39337312  0.58233583     0.01900
H406        H  0.44022004  0.43447502  0.68429639     0.14900
H407        H  0.47032532  0.38499792  0.55301707     0.14900
C408        C  0.41024242  0.37695313  0.54345448     0.36500
C409        C  0.50219252  0.44662751  0.69000351     0.36500
N410        N  0.39266525  0.36374721  0.51215232    -0.43800
N411        N  0.52090470  0.46209484  0.71920217    -0.43800
C412        C  0.24686025  0.93666287  0.06530896    -0.00200
C413        C  0.23886046  0.94643460  0.10759514    -0.12100
C414        C  0.20813012  0.94510841  0.11258634     0.02000
C415        C  0.18567303  0.93387121  0.07450670    -0.00300
C416        C  0.18954126  0.41422461  0.04030911    -0.12000
C417        C  0.22046331  0.41598754  0.03486540     0.01900
H418        H  0.25794584  0.95944151  0.13391993     0.14900
H419        H  0.17074719  0.40218181  0.01331473     0.14900
C420        C  0.22528689  0.39969288  0.99505087     0.36500
C421        C  0.20273189  0.95967297  0.15391022     0.36500
N422        N  0.22913045  0.38671240  0.96304922    -0.43800
N423        N  0.19887672  0.97159214  0.18711150    -0.43800
C424        C  0.93189480  0.18809145  0.95318958    -0.00200
C425        C  0.41179733  0.19199055  0.98661273    -0.12100
C426        C  0.41002860  0.22126776  0.98769678     0.02000
C427        C  0.42816749  0.24631375  0.95416621    -0.00300
C428        C  0.93851264  0.23709712  0.91333719    -0.12000
C429        C  0.94050040  0.20789314  0.91257474     0.01900
H430        H  0.40176469  0.17490076  0.01583425     0.14900
H431        H  0.94941852  0.25460692  0.88473159     0.14900
C432        C  0.95474931  0.20099498  0.87214605     0.36500
C433        C  0.39350191  0.22647391  0.02692085     0.36500
N434        N  0.96613324  0.19538937  0.83978716    -0.43800
N435        N  0.38056178  0.23051046  0.05882562    -0.43800
C436        C  0.27213836  0.42376255  0.29528518    -0.00200
C437        C  0.25273917  0.39908867  0.32806957    -0.12100
C438        C  0.25290919  0.36897482  0.32865903     0.02000
C439        C  0.27327560  0.36409903  0.29632025    -0.00300
C440        C  0.28414224  0.38435531  0.25643790    -0.12000
C441        C  0.28334828  0.41415372  0.25536692     0.01900
H442        H  0.24115760  0.40480751  0.35677698     0.14900
H443        H  0.29702016  0.37928613  0.22876829     0.14900
C444        C  0.29747911  0.43562508  0.21530891     0.36500
C445        C  0.23493486  0.34550504  0.36554387     0.36500
N446        N  0.30892043  0.45263988  0.18308056    -0.43800
N447        N  0.22050117  0.32688848  0.39525130    -0.43800
C448        C  0.09030659  0.24284463  0.28945047    -0.00200
C449        C  0.09998322  0.23365282  0.24815887    -0.12100
C450        C  0.13036234  0.23392014  0.24642205     0.02000
C451        C  0.15049398  0.24293776  0.28696248    -0.00300
C452        C  0.14545844  0.26166796  0.32130727    -0.12000
C453        C  0.11540376  0.26208875  0.32255957     0.01900
H454        H  0.08224061  0.22209283  0.21983388     0.14900
H455        H  0.16260404  0.27204211  0.35050135     0.14900
C456        C  0.10981109  0.27906129  0.36084734     0.36500
C457        C  0.13816229  0.22138357  0.20495978     0.36500
N458        N  0.10544430  0.29265788  0.39161420    -0.43800
N459        N  0.14433882  0.21134610  0.17166981    -0.43800
Zn460      Zn  0.46617459  0.60820544  0.17030376     1.49700
Zn461      Zn  0.39428092  0.59440302  0.12980115     1.49400
Zn462      Zn  0.39968620  0.53930487  0.18569714     1.49100
Zn463      Zn  0.40594303  0.60495908  0.23570258     1.49500
O464        O  0.41742420  0.58699643  0.18070453    -1.84200
O465        O  0.47814228  0.62979555  0.10383387    -0.74800
O466        O  0.36582347  0.55337231  0.09224787    -0.74600
O467        O  0.43500022  0.52567192  0.19212531    -0.74100
O468        O  0.42804954  0.62280532  0.08601334    -0.74800
O469        O  0.48214272  0.57305067  0.17783698    -0.74400
O470        O  0.37185947  0.51460321  0.12952823    -0.75000
O471        O  0.37399487  0.56839427  0.27880194    -0.74400
O472        O  0.36858535  0.61811773  0.14626794    -0.75200
O473        O  0.36958316  0.52428592  0.24076637    -0.74500
O474        O  0.38467761  0.63306545  0.21931112    -0.75000
O475        O  0.44677337  0.63563400  0.27013097    -0.74900
O476        O  0.48807272  0.64449914  0.22102616    -0.74700
C477        C  0.45860623  0.63400363  0.07641023     0.77100
C478        C  0.36026688  0.52367190  0.09584982     0.77600
C479        C  0.46661222  0.54160441  0.18660082     0.76500
C480        C  0.36123662  0.53702457  0.27393992     0.76900
C481        C  0.36956926  0.63414438  0.18283778     0.78000
C482        C  0.47740405  0.65118168  0.25853798     0.77100
C483        C  0.05452102  0.72389839  0.30268262     0.80200
N484        N  0.04505739  0.72636617  0.34643117    -0.78100
C485        C  0.51360537  0.70566369  0.36178471     0.82600
N486        N  0.49101980  0.68160625  0.33296774    -0.78100
C487        C  0.50071554  0.67795154  0.28942091     0.82700
N488        N  0.03225196  0.69913035  0.27457223    -0.79800
C489        C  0.28815694  0.95915112  0.31021687     0.80200
N490        N  0.31481149  0.98254203  0.28679081    -0.78100
C491        C  0.33404760  0.51369730  0.30396273     0.82600
N492        N  0.32710503  0.52193292  0.34667828    -0.78100
C493        C  0.30040719  0.49813415  0.37108189     0.82700
N494        N  0.28127358  0.96720097  0.35243911    -0.79800
C495        C  0.95139711  0.67215985  0.96849743     0.80200
N496        N  0.97747879  0.67520394  0.94321064    -0.78100
C497        C  0.99929153  0.66661951  0.96144205     0.82600
N498        N  0.99510129  0.65442585  0.00583185    -0.78100
C499        C  0.46873059  0.65118614  0.03131349     0.82700
N500        N  0.44742062  0.66015519  0.01228623    -0.79800
C501        C  0.28197847  0.95551476  0.04925361     0.80200
N502        N  0.28965187  0.95561334  0.00361485    -0.78100
C503        C  0.32091166  0.97649915  0.98752226     0.82600
N504        N  0.34494887  0.49802092  0.01765141    -0.78100
C505        C  0.33702007  0.49865432  0.06324043     0.82700
N506        N  0.30584683  0.47733269  0.07863962    -0.79800
Zn507      Zn  0.26265484  0.74293945  0.57153684     1.49700
Zn508      Zn  0.27065262  0.80453809  0.50893560     1.49400
Zn509      Zn  0.27107328  0.74191046  0.46148483     1.49100
Zn510      Zn  0.20489261  0.73942701  0.50435717     1.49500
O511        O  0.25253019  0.75676396  0.51249783    -1.84200
O512        O  0.29107398  0.78449952  0.61044264    -0.74800
O513        O  0.28973248  0.81884189  0.44502837    -0.74600
O514        O  0.29477154  0.71692269  0.48461386    -0.74100
O515        O  0.30424471  0.82571490  0.55922174    -0.74800
O516        O  0.28893089  0.71683558  0.56164734    -0.74400
O517        O  0.30285228  0.78092163  0.42104970    -0.75000
O518        O  0.19446142  0.72495902  0.43788217    -0.74400
O519        O  0.23717497  0.82088036  0.51839969    -0.75200
O520        O  0.23463988  0.71478240  0.41407242    -0.74500
O521        O  0.18929048  0.77337935  0.51458090    -0.75000
O522        O  0.17940794  0.70315176  0.55119710    -0.74900
O523        O  0.21857144  0.71456248  0.60549433    -0.74700
C524        C  0.30720449  0.81526567  0.59903028     0.77100
C525        C  0.30176106  0.80762125  0.41463095     0.77600
C526        C  0.29991093  0.70915587  0.52529331     0.76500
C527        C  0.20779093  0.71568110  0.40674526     0.76900
C528        C  0.20533874  0.80497805  0.51936765     0.78000
C529        C  0.18806253  0.69954598  0.59206412     0.77100
Zn530      Zn  0.30874072  0.94060840  0.84278669     1.49700
Zn531      Zn  0.36567474  0.93375281  0.90453008     1.49400
Zn532      Zn  0.30832701  0.87212535  0.83855183     1.49100
Zn533      Zn  0.37186618  0.93317082  0.80386534     1.49500
O534        O  0.33734040  0.92024146  0.84919602    -1.84200
O535        O  0.31440091  0.96599596  0.90535494    -0.74800
O536        O  0.35818735  0.89238665  0.93491260    -0.74600
O537        O  0.25786291  0.85675508  0.84731234    -0.74100
O538        O  0.35026248  0.95655741  0.94647240    -0.74800
O539        O  0.25787237  0.90469760  0.84212436    -0.74400
O540        O  0.32358645  0.85068159  0.88749718    -0.75000
O541        O  0.36985279  0.89429316  0.77338578    -0.74400
O542        O  0.41662895  0.96320532  0.89782301    -0.75200
O543        O  0.31522967  0.86057102  0.77076491    -0.74500
O544        O  0.42026313  0.96201404  0.82154760    -0.75000
O545        O  0.36207260  0.95703501  0.75728189    -0.74900
O546        O  0.32135995  0.96704445  0.77899748    -0.74700
C547        C  0.33005691  0.96758107  0.94327604     0.77100
C548        C  0.34224860  0.86168215  0.92380263     0.77600
C549        C  0.24191703  0.87286922  0.84628710     0.76500
C550        C  0.34407716  0.87265587  0.75206227     0.76900
C551        C  0.43419514  0.97125970  0.86097614     0.78000
C552        C  0.34334869  0.96931877  0.74937710     0.77100
C553        C  0.38684346  0.88440725  0.63975282     0.80200
N554        N  0.38004872  0.88642758  0.68509925    -0.78100
C555        C  0.34945046  0.86576583  0.70371981     0.82600
N556        N  0.32495954  0.84199834  0.67639458    -0.78100
C557        C  0.33187115  0.83971181  0.63068874     0.82700
N558        N  0.36244764  0.86091427  0.61287408    -0.79800
C559        C  0.38903518  0.50989260  0.64260224     0.80200
N560        N  0.36577066  0.51247327  0.61709045    -0.78100
C561        C  0.33476334  0.00209103  0.63431697     0.82600
N562        N  0.32653146  0.98881326  0.67823043    -0.78100
C563        C  0.35011125  0.98671191  0.70434245     0.82700
N564        N  0.38093048  0.49729375  0.68607178    -0.79800
C565        C  0.33433580  0.78354686  0.96789672     0.80200
N566        N  0.34550253  0.79232449  0.01236648    -0.78100
C567        C  0.35710039  0.82402490  0.02776347     0.82600
N568        N  0.35747259  0.84724346  0.99845477    -0.78100
C569        C  0.34526436  0.83824751  0.95441450     0.82700
N570        N  0.33381610  0.80665664  0.93960961    -0.79800
Zn571      Zn  0.47967363  0.74554919  0.57054725     1.49700
Zn572      Zn  0.03264873  0.80377597  0.50438587     1.49400
Zn573      Zn  0.03290721  0.73893197  0.50503993     1.49100
Zn574      Zn  0.46937487  0.74019628  0.46003575     1.49500
O575        O  0.50280967  0.75641423  0.51105669    -1.84200
O576        O  0.49536898  0.78927241  0.60551439    -0.74800
O577        O  0.08212673  0.82046380  0.51716033    -0.74600
O578        O  0.02177358  0.70448884  0.55438131    -0.74100
O579        O  0.01985401  0.82767976  0.54959561    -0.74800
O580        O  0.49400039  0.71692050  0.60734046    -0.74400
O581        O  0.08261228  0.77300298  0.51446744    -0.75000
O582        O  0.47725104  0.71056203  0.41561295    -0.74400
O583        O  0.02941049  0.81532764  0.43866409    -0.75200
O584        O  0.02801219  0.72210012  0.43952021    -0.74500
O585        O  0.47776689  0.77804699  0.41597356    -0.75000
O586        O  0.42100428  0.71638440  0.48387572    -0.74900
O587        O  0.42725044  0.72002656  0.56107704    -0.74700
C588        C  0.00909217  0.81938274  0.59102388     0.77100
C589        C  0.09809888  0.80462452  0.51901433     0.77600
C590        C  0.00909392  0.70131017  0.59484549     0.76500
C591        C  0.50509680  0.71168089  0.40858480     0.76900
C592        C  0.50617016  0.80377481  0.40830465     0.78000
C593        C  0.40839723  0.71045891  0.52475886     0.77100
Zn594      Zn  0.37058962  0.80733206  0.17250579     1.49700
Zn595      Zn  0.43587328  0.80715487  0.17026540     1.49400
Zn596      Zn  0.43483006  0.87065709  0.12566441     1.49100
Zn597      Zn  0.43156808  0.86262378  0.23535383     1.49500
O598        O  0.41854578  0.83758995  0.17714827    -1.84200
O599        O  0.35440349  0.75755317  0.18239062    -0.74800
O600        O  0.45051147  0.81047256  0.10391081    -0.74600
O601        O  0.39636708  0.86131330  0.08254457    -0.74100
O602        O  0.40215844  0.75740775  0.17977163    -0.74800
O603        O  0.35859182  0.81017980  0.10618304    -0.74400
O604        O  0.46306169  0.86131706  0.08008304    -0.75000
O605        O  0.45747402  0.91510756  0.22489205    -0.74400
O606        O  0.47191011  0.81914543  0.21777065    -0.75200
O607        O  0.45937337  0.92006602  0.14770441    -0.74500
O608        O  0.46109891  0.84857511  0.27012282    -0.75000
O609        O  0.38892190  0.84854346  0.27273527    -0.74900
O610        O  0.34767176  0.82002351  0.22131993    -0.74700
C611        C  0.37038700  0.74166700  0.18321342     0.77100
C612        C  0.46057017  0.83294484  0.07261741     0.77600
C613        C  0.37079017  0.83277321  0.07501202     0.76500
C614        C  0.46625786  0.93347577  0.18820007     0.76900
C615        C  0.47624169  0.83300160  0.25758883     0.78000
C616        C  0.35799566  0.83356161  0.26122524     0.77100
C617        C  0.29073216  0.84561165  0.30915359     0.80200
N618        N  0.31299384  0.84441640  0.27946583    -0.78100
C619        C  0.33345411  0.83295674  0.29398361     0.82600
N620        N  0.33127436  0.82175748  0.33855179    -0.78100
C621        C  0.30905003  0.82309340  0.36846370     0.82700
N622        N  0.28945068  0.83536376  0.35359017    -0.79800
C623        C  0.05592317  0.84522755  0.30414290     0.80200
N624        N  0.04658943  0.83236765  0.34752195    -0.78100
C625        C  0.51442987  0.81882103  0.36193145     0.82600
N626        N  0.49099050  0.81844861  0.33275943    -0.78100
C627        C  0.50025019  0.83168778  0.28927661     0.82700
N628        N  0.03244979  0.84480549  0.27523126    -0.79800
Zn629      Zn  0.23861290  0.97973502  0.58209879     1.49700
Zn630      Zn  0.23392024  0.53752502  0.51941225     1.49400
Zn631      Zn  0.30000595  0.53501130  0.51391118     1.49100
Zn632      Zn  0.22921994  0.97399330  0.47931097     1.49500
O633        O  0.25205629  0.50748561  0.52581468    -1.84200
O634        O  0.21016870  0.99186417  0.62032203    -0.74800
O635        O  0.26935980  0.58695733  0.52629907    -0.74600
O636        O  0.32086406  0.52081684  0.56566471    -0.74100
O637        O  0.20084352  0.52478185  0.57240293    -0.74800
O638        O  0.28000470  0.98979090  0.61652070    -0.74400
O639        O  0.31699182  0.58621928  0.52061080    -0.75000
O640        O  0.25959337  0.98418312  0.42695820    -0.74400
O641        O  0.21410555  0.53166742  0.45311888    -0.75200
O642        O  0.31039254  0.52533269  0.44644530    -0.74500
O643        O  0.19054408  0.97706458  0.45756591    -0.75000
O644        O  0.21151419  0.92579240  0.49531380    -0.74900
O645        O  0.21202474  0.92807740  0.57202952    -0.74700
C646        C  0.19562363  0.00837575  0.61045753     0.77100
C647        C  0.30129090  0.60244437  0.52519435     0.77600
C648        C  0.31056889  0.00459104  0.60411896     0.76500
C649        C  0.29011177  0.50376451  0.41710992     0.76900
C650        C  0.19655459  0.50291449  0.43485462     0.78000
C651        C  0.20440145  0.91114526  0.53436414     0.77100
Zn652      Zn  0.03876095  0.64256202  0.84206909     1.49700
Zn653      Zn  0.10534522  0.64397515  0.84196506     1.49400
Zn654      Zn  0.10143675  0.70562087  0.79724188     1.49100
Zn655      Zn  0.09849964  0.69653210  0.90781613     1.49500
O656        O  0.08629394  0.67263628  0.84836461    -1.84200
O657        O  0.02392187  0.59344225  0.85230008    -0.74800
O658        O  0.12317395  0.65010704  0.77688037    -0.74600
O659        O  0.06330014  0.69779269  0.75400228    -0.74100
O660        O  0.07217224  0.59409656  0.85051967    -0.74800
O661        O  0.02551087  0.64648364  0.77648269    -0.74400
O662        O  0.13185659  0.69967564  0.75288277    -0.75000
O663        O  0.12611653  0.74849205  0.89723179    -0.74400
O664        O  0.13968038  0.65552473  0.89153176    -0.75200
O665        O  0.12579620  0.75305745  0.81998839    -0.74500
O666        O  0.12591148  0.68140281  0.94566023    -0.75000
O667        O  0.05569034  0.68364473  0.94357412    -0.74900
O668        O  0.01573820  0.65427716  0.89091893    -0.74700
C669        C  0.04041236  0.57809877  0.85416704     0.77100
C670        C  0.13263404  0.67292054  0.74605578     0.77600
C671        C  0.03707388  0.66983686  0.74632439     0.76500
C672        C  0.13429333  0.76636752  0.86014375     0.76900
C673        C  0.14218065  0.66717905  0.93253909     0.78000
C674        C  0.02508336  0.66809103  0.93077800     0.77100
C675        C  0.11590796  0.62377693  0.63989087     0.80200
N676        N  0.13934510  0.64577459  0.60992801    -0.78100
C677        C  0.16202238  0.67709476  0.62436388     0.82600
N678        N  0.16113927  0.68681747  0.66905305    -0.78100
C679        C  0.13778608  0.66460238  0.69894768     0.82700
N680        N  0.11582705  0.63360848  0.68407235    -0.79800
C681        C  0.50129766  0.62301862  0.63784315     0.80200
N682        N  0.51181765  0.63107175  0.68255701    -0.78100
C683        C  0.02237924  0.66217325  0.69944373     0.82600
N684        N  0.02196112  0.68573578  0.67132127    -0.78100
C685        C  0.01074935  0.67751493  0.62658757     0.82700
N686        N  0.50087439  0.64650531  0.61024590    -0.79800
Zn687      Zn  0.14072100  0.60764903  0.17357662     1.49700
Zn688      Zn  0.13867905  0.53946058  0.19186059     1.49400
Zn689      Zn  0.19868183  0.59399347  0.13394409     1.49100
Zn690      Zn  0.19857590  0.60562725  0.23970362     1.49500
O691        O  0.16860326  0.58693206  0.18518007    -1.84200
O692        O  0.08981698  0.57275016  0.18073565    -0.74800
O693        O  0.14198014  0.51452244  0.13670388    -0.74600
O694        O  0.19323541  0.62235177  0.08989768    -0.74100
O695        O  0.08951236  0.52558915  0.19696757    -0.74800
O696        O  0.14981411  0.62886530  0.10706509    -0.74400
O697        O  0.18549700  0.55277573  0.09673522    -0.75000
O698        O  0.24800262  0.63337957  0.22275079    -0.74400
O699        O  0.15378312  0.52512211  0.24774719    -0.75200
O700        O  0.24817786  0.61738327  0.15005170    -0.74500
O701        O  0.19366154  0.56978634  0.28467930    -0.75000
O702        O  0.18866269  0.63696650  0.27234598    -0.74900
O703        O  0.15496687  0.64413675  0.22329663    -0.74700
C704        C  0.07385892  0.54142347  0.18999968     0.77100
C705        C  0.16166001  0.52310954  0.10198629     0.77600
C706        C  0.17368367  0.63328358  0.07991044     0.76500
C707        C  0.26372755  0.63390519  0.18607829     0.76900
C708        C  0.17488131  0.53836178  0.28083848     0.78000
C709        C  0.17295811  0.65181517  0.26028810     0.77100
C710        C  0.16839237  0.72506108  0.30050662     0.80200
N711        N  0.18181823  0.72942383  0.34379616    -0.78100
C712        C  0.19326948  0.70937800  0.35995141     0.82600
N713        N  0.19115317  0.68441476  0.33261484    -0.78100
C714        C  0.17660515  0.67915793  0.28975017     0.82700
N715        N  0.16532755  0.69937753  0.27414447    -0.79800
C716        C  0.16878090  0.96079597  0.32161975     0.80200
N717        N  0.16916069  0.98494487  0.29496416    -0.78100
C718        C  0.17816672  0.51544780  0.31242861     0.82600
N719        N  0.18738124  0.52252667  0.35811546    -0.78100
C720        C  0.18635330  0.49794721  0.38568874     0.82700
N721        N  0.17683836  0.96738610  0.36718755    -0.79800
C722        C  0.21979984  0.67195460  0.97305477     0.80200
N723        N  0.21148616  0.66026301  0.01684179    -0.78100
C724        C  0.18081889  0.65055412  0.03485131     0.82600
N725        N  0.15762523  0.65314913  0.00841463    -0.78100
C726        C  0.16599213  0.66525726  0.96397560     0.82700
N727        N  0.19671493  0.67423198  0.94666527    -0.79800
Zn728      Zn  0.08953500  0.89598056  0.89925820     1.49700
Zn729      Zn  0.03740475  0.90451825  0.83708364     1.49400
Zn730      Zn  0.10588867  0.96888470  0.85860431     1.49100
Zn731      Zn  0.10437318  0.90797211  0.79585317     1.49500
O732        O  0.08461261  0.91996437  0.84806877    -1.84200
O733        O  0.04561834  0.86763609  0.93064775    -0.74800
O734        O  0.02431637  0.94020100  0.84554528    -0.74600
O735        O  0.13245878  0.98165782  0.92159619    -0.74100
O736        O  0.00824637  0.86847627  0.88211609    -0.74800
O737        O  0.11609831  0.92973852  0.94485460    -0.74400
O738        O  0.07198994  0.98538611  0.86415069    -0.75000
O739        O  0.13217516  0.94900027  0.75898000    -0.74400
O740        O  0.02769102  0.88953757  0.77114331    -0.75200
O741        O  0.12995480  0.99015206  0.79705449    -0.74500
O742        O  0.06827676  0.87968308  0.74819060    -0.75000
O743        O  0.13311058  0.88680008  0.81414498    -0.74900
O744        O  0.11473681  0.87031394  0.88595450    -0.74700
C745        C  0.01563222  0.85885113  0.91954256     0.77100
C746        C  0.04055844  0.97094265  0.85668359     0.77600
C747        C  0.13145645  0.96093232  0.95216816     0.76500
C748        C  0.13700504  0.97855301  0.76090593     0.76900
C749        C  0.04113552  0.88000818  0.74056765     0.78000
C750        C  0.13271202  0.87150893  0.85136797     0.77100
C751        C  0.50389165  0.89143007  0.63398067     0.80200
N752        N  0.51578530  0.89423491  0.67787769    -0.78100
C753        C  0.02678232  0.87375726  0.69374984     0.82600
N754        N  0.02488435  0.84909252  0.66586773    -0.78100
C755        C  0.01221078  0.84564017  0.62202863     0.82700
N756        N  0.50231918  0.86697959  0.60621236    -0.79800
C757        C  0.12702532  0.51845719  0.65606997     0.80200
N758        N  0.12484341  0.50795244  0.70090191    -0.78100
C759        C  0.14555054  0.99707132  0.71691344     0.82600
N760        N  0.16826487  0.99621674  0.68743665    -0.78100
C761        C  0.17136914  0.00810355  0.64325310     0.82700
N762        N  0.15081451  0.51901057  0.62818094    -0.79800
C763        C  0.44516035  0.78230909  0.96649051     0.80200
N764        N  0.96781130  0.80500399  0.93658049    -0.78100
C765        C  0.98898326  0.83664472  0.95065846     0.82600
N766        N  0.48759487  0.84623912  0.99509788    -0.78100
C767        C  0.46494841  0.82371172  0.02530063     0.82700
N768        N  0.44430452  0.79190589  0.01092132    -0.79800
C769        C  0.16798660  0.45184394  0.06037283     0.80200
N770        N  0.15757126  0.94937512  0.01581378    -0.78100
C771        C  0.14805145  0.97045948  0.99778258     0.82600
N772        N  0.14884818  0.49493607  0.02524631    -0.78100
C773        C  0.15914108  0.49733169  0.07055135     0.82700
N774        N  0.16865610  0.47601011  0.08752056    -0.79800
C775        C  0.48513373  0.52275410  0.18962426     0.80200
N776        N  0.46815420  0.98850042  0.19043372    -0.78100
C777        C  0.48493853  0.97103685  0.19197621     0.82600
N778        N  0.01917336  0.98844074  0.19240792    -0.78100
C779        C  0.03649063  0.52267027  0.19155491     0.82700
N780        N  0.01922945  0.53949954  0.18978597    -0.81000
C781        C  0.31912415  0.69098405  0.52963386     0.80200
N782        N  0.35337404  0.70816744  0.52922653    -0.78100
C783        C  0.37110259  0.69162953  0.52932325     0.82600
N784        N  0.35416369  0.65749934  0.52825012    -0.78100
C785        C  0.31994617  0.63986319  0.52831824     0.82700
N786        N  0.30271026  0.65689713  0.52882088    -0.79800
C787        C  0.18667851  0.82334711  0.52523715     0.80200
N788        N  0.20335336  0.85720563  0.53087170    -0.78100
C789        C  0.18618973  0.87409823  0.53466548     0.82600
N790        N  0.15211735  0.85695994  0.53105017    -0.78100
C791        C  0.13510996  0.82312586  0.52532790     0.82700
N792        N  0.15261035  0.80657539  0.52247005    -0.79800
C793        C  0.02240553  0.98993520  0.86016619     0.80200
N794        N  0.48832550  0.97321100  0.86182458    -0.78100
C795        C  0.47110722  0.99005200  0.86330220     0.82600
N796        N  0.48813676  0.52399440  0.86140470    -0.78100
C797        C  0.02225886  0.54118102  0.85932169     0.82700
N798        N  0.03926780  0.52398557  0.85888053    -0.79800
C799        C  0.15250041  0.85400826  0.85415102     0.80200
N800        N  0.18659083  0.87088981  0.84892390    -0.78100
C801        C  0.20432627  0.85431669  0.85073814     0.82600
N802        N  0.18727306  0.82042650  0.85670263    -0.78100
C803        C  0.15328842  0.80337886  0.86223577     0.82700
N804        N  0.13620903  0.82036421  0.86072724    -0.79800
C805        C  0.35175508  0.65315877  0.18358998     0.80200
N806        N  0.31780985  0.63634943  0.18328056    -0.78100
C807        C  0.30059797  0.65304840  0.18565381     0.82600
N808        N  0.31760142  0.68711822  0.18698250    -0.78100
C809        C  0.35181149  0.70445449  0.18616592     0.82700
N810        N  0.36875378  0.68720287  0.18495193    -0.79800
C811        C  0.10681358  0.53318957  0.63927970    -0.00200
C812        C  0.08652412  0.53775269  0.67134871    -0.12100
C813        C  0.08072113  0.56442603  0.66596602     0.02000
C814        C  0.09735639  0.58755712  0.62950849    -0.00300
C815        C  0.10785411  0.57667607  0.59081270    -0.12000
C816        C  0.11278518  0.54935328  0.59536796     0.01900
H817        H  0.07878993  0.52340368  0.70333417     0.14900
H818        H  0.11739302  0.59235166  0.56013445     0.14900
C819        C  0.12736140  0.54131239  0.55638199     0.36500
C820        C  0.06293652  0.57048352  0.70268892     0.36500
N821        N  0.13911450  0.53505770  0.52507230    -0.43800
N822        N  0.04916994  0.57537377  0.73272304    -0.43800
C823        C  0.09212764  0.86588487  0.29334911    -0.00200
C824        C  0.11534228  0.86899287  0.32773274    -0.12100
C825        C  0.14557132  0.89891366  0.33266826     0.02000
C826        C  0.15176497  0.92606378  0.30376844    -0.00300
C827        C  0.13338588  0.91935683  0.26210104    -0.12000
C828        C  0.10367130  0.88913957  0.25631347     0.01900
H829        H  0.10839919  0.84978001  0.35400265     0.14900
H830        H  0.13959997  0.93899029  0.23674787     0.14900
C831        C  0.08434982  0.88447687  0.21447676     0.36500
C832        C  0.16831208  0.90185222  0.36939959     0.36500
N833        N  0.06906801  0.88084642  0.18076933    -0.43800
N834        N  0.18669614  0.90401929  0.39850193    -0.43800
C835        C  0.31583634  0.74787816  0.95425980    -0.00200
C836        C  0.31111259  0.72407585  0.98816716    -0.12100
C837        C  0.28102855  0.69386189  0.98983801     0.02000
C838        C  0.25526752  0.68845475  0.95808275    -0.00300
C839        C  0.26419609  0.70748023  0.91702059    -0.12000
C840        C  0.29489842  0.73707496  0.91440791     0.01900
H841        H  0.32863457  0.73065325  0.01677619     0.14900
H842        H  0.24585704  0.70174027  0.88964974     0.14900
C843        C  0.30223539  0.75725008  0.87290581     0.36500
C844        C  0.27625712  0.67103010  0.02728184     0.36500
N845        N  0.30814504  0.77340839  0.83965213    -0.43800
N846        N  0.27272671  0.65282964  0.05728283    -0.43800
C847        C  0.48373293  0.58750416  0.62324472    -0.00200
C848        C  0.48007833  0.56355346  0.65638126    -0.12100
C849        C  0.45056149  0.53279841  0.65803849     0.02000
C850        C  0.42435855  0.52694355  0.62697140    -0.00300
C851        C  0.43252304  0.54620467  0.58615679    -0.12000
C852        C  0.46251714  0.57653326  0.58372954     0.01900
H853        H  0.49789907  0.57032297  0.68460424     0.14900
H854        H  0.41389306  0.54007803  0.55908109     0.14900
C855        C  0.46868858  0.59707850  0.54290693     0.36500
C856        C  0.44672534  0.50977477  0.69475663     0.36500
N857        N  0.47354680  0.61340409  0.51005810    -0.43800
N858        N  0.44393645  0.49142433  0.72416072    -0.43800
C859        C  0.42203238  0.90285451  0.62321452    -0.00200
C860        C  0.44678719  0.92404844  0.65501962    -0.12100
C861        C  0.47856615  0.92729822  0.65382817     0.02000
C862        C  0.48497497  0.90844606  0.62085425    -0.00300
C863        C  0.46415590  0.89649109  0.58140654    -0.12000
C864        C  0.43240811  0.89337253  0.58233606     0.01900
H865        H  0.44022001  0.93447502  0.68429625     0.14900
H866        H  0.47032466  0.88499708  0.55301728     0.14900
C867        C  0.41024187  0.87695257  0.54345479     0.36500
C868        C  0.50219242  0.94662716  0.69000320     0.36500
N869        N  0.39266462  0.86374679  0.51215266    -0.43800
N870        N  0.52090468  0.96209445  0.71920179    -0.43800
C871        C  0.24685998  0.43666203  0.06530827    -0.00200
C872        C  0.23886025  0.44643375  0.10759453    -0.12100
C873        C  0.20813011  0.44510800  0.11258565     0.02000
C874        C  0.18567304  0.43387098  0.07450600    -0.00300
C875        C  0.18954145  0.91422494  0.04030989    -0.12000
C876        C  0.22046360  0.91598809  0.03486624     0.01900
H877        H  0.25794560  0.45944041  0.13391941     0.14900
H878        H  0.17074739  0.90218199  0.01331548     0.14900
C879        C  0.22528726  0.89969326  0.99505201     0.36500
C880        C  0.20273218  0.45967290  0.15390942     0.36500
N881        N  0.22913075  0.88671254  0.96305059    -0.43800
N882        N  0.19887730  0.47159247  0.18711051    -0.43800
C883        C  0.93189570  0.68809163  0.95318927    -0.00200
C884        C  0.41179624  0.69198993  0.98661296    -0.12100
C885        C  0.41002806  0.72126744  0.98769760     0.02000
C886        C  0.42816691  0.74631342  0.95416695    -0.00300
C887        C  0.93851395  0.73709745  0.91333684    -0.12000
C888        C  0.94050180  0.70789351  0.91257457     0.01900
H889        H  0.40176362  0.67490009  0.01583442     0.14900
H890        H  0.94942007  0.75460732  0.88473141     0.14900
C891        C  0.95475108  0.70099548  0.87214616     0.36500
C892        C  0.39350190  0.72647376  0.02692216     0.36500
N893        N  0.96613518  0.69538981  0.83978751    -0.43800
N894        N  0.38056213  0.73051036  0.05882735    -0.43800
C895        C  0.27213929  0.92376263  0.29528630    -0.00200
C896        C  0.25274003  0.89908880  0.32807070    -0.12100
C897        C  0.25290952  0.86897469  0.32865975     0.02000
C898        C  0.27327561  0.86409866  0.29632066    -0.00300
C899        C  0.28414225  0.88435498  0.25643835    -0.12000
C900        C  0.28334888  0.91415368  0.25536780     0.01900
H901        H  0.24115871  0.90480778  0.35677830     0.14900
H902        H  0.29701982  0.87928555  0.22876843     0.14900
C903        C  0.29747947  0.93562499  0.21530968     0.36500
C904        C  0.23493508  0.84550490  0.36554454     0.36500
N905        N  0.30892035  0.95263968  0.18308114    -0.43800
N906        N  0.22050132  0.82688837  0.39525196    -0.43800
C907        C  0.09030682  0.74284470  0.28945128    -0.00200
C908        C  0.09998330  0.73365290  0.24815957    -0.12100
C909        C  0.13036235  0.73392011  0.24642254     0.02000
C910        C  0.15049405  0.74293760  0.28696287    -0.00300
C911        C  0.14545866  0.76166780  0.32130781    -0.12000
C912        C  0.11540406  0.76208873  0.32256030     0.01900
H913        H  0.08224064  0.72209305  0.21983459     0.14900
H914        H  0.16260437  0.77204190  0.35050183     0.14900
C915        C  0.10981163  0.77906161  0.36084785     0.36500
C916        C  0.13816222  0.72138370  0.20496006     0.36500
N917        N  0.10544506  0.79265850  0.39161449    -0.43800
N918        N  0.14433862  0.71134644  0.17166977    -0.43800
Zn919      Zn  0.96617468  0.10820555  0.17030381     1.49700
Zn920      Zn  0.89428112  0.09440333  0.12980084     1.49400
Zn921      Zn  0.89968612  0.03930497  0.18569679     1.49100
Zn922      Zn  0.90594304  0.10495919  0.23570228     1.49500
O923        O  0.91742425  0.08699657  0.18070423    -1.84200
O924        O  0.97814265  0.12979593  0.10383415    -0.74800
O925        O  0.86582372  0.05337268  0.09224748    -0.74600
O926        O  0.93500021  0.02567198  0.19212493    -0.74100
O927        O  0.92804994  0.12280569  0.08601337    -0.74800
O928        O  0.98214278  0.07305075  0.17783693    -0.74400
O929        O  0.87185938  0.01460338  0.12952786    -0.75000
O930        O  0.87399474  0.06839438  0.27880158    -0.74400
O931        O  0.86858541  0.11811789  0.14626757    -0.75200
O932        O  0.86958304  0.02428604  0.24076600    -0.74500
O933        O  0.88467766  0.13306558  0.21931076    -0.75000
O934        O  0.94677321  0.13563408  0.27013098    -0.74900
O935        O  0.98807266  0.14449902  0.22102652    -0.74700
C936        C  0.95860667  0.13400407  0.07641045     0.77100
C937        C  0.86026696  0.02367221  0.09584938     0.77600
C938        C  0.96661224  0.04160448  0.18660063     0.76500
C939        C  0.86123650  0.03702467  0.27393958     0.76900
C940        C  0.86956931  0.13414451  0.18283743     0.78000
C941        C  0.97740394  0.15118163  0.25853821     0.77100
C942        C  0.55452088  0.22389824  0.30268285     0.80200
N943        N  0.54505727  0.22636602  0.34643141    -0.78100
C944        C  0.01360528  0.20566345  0.36178506     0.82600
N945        N  0.99101968  0.18160611  0.33296801    -0.78100
C946        C  0.00071542  0.17795142  0.28942122     0.82700
N947        N  0.53225180  0.19913022  0.27457248    -0.79800
C948        C  0.78815664  0.45915141  0.31021662     0.80200
N949        N  0.81481124  0.48254228  0.28679061    -0.78100
C950        C  0.83404755  0.01369738  0.30396251     0.82600
N951        N  0.82710493  0.02193304  0.34667800    -0.78100
C952        C  0.80040715  0.99813426  0.37108172     0.82700
N953        N  0.78127331  0.46720125  0.35243887    -0.79800
C954        C  0.45139753  0.17216026  0.96849771     0.80200
N955        N  0.47747921  0.17520436  0.94321089    -0.78100
C956        C  0.49929191  0.16661986  0.96144223     0.82600
N957        N  0.49510160  0.15442606  0.00583195    -0.78100
C958        C  0.96873111  0.15118670  0.03131383     0.82700
N959        N  0.94742118  0.16015582  0.01228661    -0.79800
C960        C  0.78197852  0.45551465  0.04925367     0.80200
N961        N  0.78965192  0.45561341  0.00361486    -0.78100
C962        C  0.82091172  0.47649926  0.98752231     0.82600
N963        N  0.84494891  0.99802123  0.01765090    -0.78100
C964        C  0.83702012  0.99865472  0.06323993     0.82700
N965        N  0.80584690  0.97733311  0.07863918    -0.79800
Zn966      Zn  0.76265490  0.24293952  0.57153680     1.49700
Zn967      Zn  0.77065267  0.30453822  0.50893568     1.49400
Zn968      Zn  0.77107310  0.24191040  0.46148466     1.49100
Zn969      Zn  0.70489254  0.23942712  0.50435721     1.49500
O970        O  0.75253018  0.25676405  0.51249777    -1.84200
O971        O  0.79107403  0.28449957  0.61044266    -0.74800
O972        O  0.78973254  0.31884207  0.44502844    -0.74600
O973        O  0.79477159  0.21692281  0.48461365    -0.74100
O974        O  0.80424476  0.32571503  0.55922190    -0.74800
O975        O  0.78893086  0.21683554  0.56164712    -0.74400
O976        O  0.80285183  0.28092153  0.42104931    -0.75000
O977        O  0.69446124  0.22495897  0.43788228    -0.74400
O978        O  0.73717497  0.32088045  0.51839988    -0.75200
O979        O  0.73463962  0.21478221  0.41407255    -0.74500
O980        O  0.68929042  0.27337947  0.51458110    -0.75000
O981        O  0.67940800  0.20315182  0.55119714    -0.74900
O982        O  0.71857152  0.21456254  0.60549433    -0.74700
C983        C  0.80720450  0.31526573  0.59903041     0.77100
C984        C  0.80176088  0.30762132  0.41463082     0.77600
C985        C  0.79991095  0.20915591  0.52529308     0.76500
C986        C  0.70779071  0.21568097  0.40674541     0.76900
C987        C  0.70533873  0.30497817  0.51936783     0.78000
C988        C  0.68806262  0.19954599  0.59206412     0.77100
Zn989      Zn  0.80874082  0.44060865  0.84278665     1.49700
Zn990      Zn  0.86567481  0.43375301  0.90453003     1.49400
Zn991      Zn  0.80832706  0.37212549  0.83855180     1.49100
Zn992      Zn  0.87186621  0.43317094  0.80386531     1.49500
O993        O  0.83734041  0.42024161  0.84919598    -1.84200
O994        O  0.81440099  0.46599612  0.90535498    -0.74800
O995        O  0.85818754  0.39238699  0.93491261    -0.74600
O996        O  0.75786297  0.35675522  0.84731237    -0.74100
O997        O  0.85026254  0.45655753  0.94647242    -0.74800
O998        O  0.75787245  0.40469776  0.84212411    -0.74400
O999        O  0.82358663  0.35068194  0.88749718    -0.75000
O1000       O  0.86985283  0.39429328  0.77338579    -0.74400
O1001       O  0.91662900  0.46320567  0.89782297    -0.75200
O1002       O  0.81522973  0.36057101  0.77076496    -0.74500
O1003       O  0.92026320  0.46201413  0.82154760    -0.75000
O1004       O  0.86207260  0.45703507  0.75728174    -0.74900
O1005       O  0.82136006  0.46704467  0.77899744    -0.74700
C1006       C  0.83005698  0.46758121  0.94327607     0.77100
C1007       C  0.84224877  0.36168250  0.92380260     0.77600
C1008       C  0.74191711  0.37286938  0.84628692     0.76500
C1009       C  0.84407721  0.37265592  0.75206231     0.76900
C1010       C  0.93419520  0.47125991  0.86097612     0.78000
C1011       C  0.84334875  0.46931891  0.74937701     0.77100
C1012       C  0.88684352  0.38440719  0.63975291     0.80200
N1013       N  0.88004879  0.38642755  0.68509933    -0.78100
C1014       C  0.84945054  0.36576585  0.70371992     0.82600
N1015       N  0.82495957  0.34199837  0.67639471    -0.78100
C1016       C  0.83187119  0.33971181  0.63068890     0.82700
N1017       N  0.86244768  0.36091419  0.61287421    -0.79800
C1018       C  0.88903512  0.00989207  0.64260176     0.80200
N1019       N  0.86577067  0.01247297  0.61709009    -0.78100
C1020       C  0.83476348  0.50209123  0.63431693     0.82600
N1021       N  0.82653161  0.48881352  0.67823042    -0.78100
C1022       C  0.85011137  0.48671217  0.70434246     0.82700
N1023       N  0.88093033  0.99729290  0.68607112    -0.79800
C1024       C  0.83433587  0.28354717  0.96789650     0.80200
N1025       N  0.84550265  0.29232476  0.01236623    -0.78100
C1026       C  0.85710052  0.32402516  0.02776332     0.82600
N1027       N  0.85747271  0.34724375  0.99845470    -0.78100
C1028       C  0.84526451  0.33824786  0.95441444     0.82700
N1029       N  0.83381619  0.30665700  0.93960946    -0.79800
Zn1030     Zn  0.97967356  0.24554930  0.57054748     1.49700
Zn1031     Zn  0.53264875  0.30377607  0.50438580     1.49400
Zn1032     Zn  0.53290725  0.23893209  0.50503996     1.49100
Zn1033     Zn  0.96937478  0.24019614  0.46003583     1.49500
O1034       O  0.00280957  0.25641412  0.51105683    -1.84200
O1035       O  0.99536907  0.28927256  0.60551445    -0.74800
O1036       O  0.58212677  0.32046396  0.51716000    -0.74600
O1037       O  0.52177368  0.20448904  0.55438136    -0.74100
O1038       O  0.51985410  0.32767984  0.54959553    -0.74800
O1039       O  0.99400024  0.21692055  0.60734082    -0.74400
O1040       O  0.58261227  0.27300311  0.51446740    -0.75000
O1041       O  0.97725096  0.21056189  0.41561308    -0.74400
O1042       O  0.52941028  0.31532767  0.43866408    -0.75200
O1043       O  0.52801217  0.22210018  0.43952035    -0.74500
O1044       O  0.97776667  0.27804687  0.41597377    -0.75000
O1045       O  0.92100422  0.21638421  0.48387596    -0.74900
O1046       O  0.92725039  0.22002683  0.56107728    -0.74700
C1047       C  0.50909229  0.31938287  0.59102381     0.77100
C1048       C  0.59809889  0.30462466  0.51901416     0.77600
C1049       C  0.50909397  0.20131034  0.59484551     0.76500
C1050       C  0.00509670  0.21168067  0.40858508     0.76900
C1051       C  0.00616994  0.30377469  0.40830484     0.78000
C1052       C  0.90839719  0.21045893  0.52475911     0.77100
Zn1053     Zn  0.87058947  0.30733214  0.17250558     1.49700
Zn1054     Zn  0.93587327  0.30715498  0.17026544     1.49400
Zn1055     Zn  0.93482992  0.37065718  0.12566451     1.49100
Zn1056     Zn  0.93156785  0.36262369  0.23535404     1.49500
O1057       O  0.91854564  0.33758995  0.17714830    -1.84200
O1058       O  0.85440336  0.25755325  0.18239059    -0.74800
O1059       O  0.95051139  0.31047269  0.10391078    -0.74600
O1060       O  0.89636693  0.36131350  0.08254477    -0.74100
O1061       O  0.90215837  0.25740792  0.17977162    -0.74800
O1062       O  0.85859179  0.31017982  0.10618279    -0.74400
O1063       O  0.96306155  0.36131719  0.08008303    -0.75000
O1064       O  0.95747381  0.41510750  0.22489235    -0.74400
O1065       O  0.97191003  0.31914556  0.21777093    -0.75200
O1066       O  0.95937321  0.42006608  0.14770472    -0.74500
O1067       O  0.96109863  0.34857505  0.27012320    -0.75000
O1068       O  0.88892170  0.34854350  0.27273529    -0.74900
O1069       O  0.84767164  0.32002368  0.22131977    -0.74700
C1070       C  0.87038695  0.24166712  0.18321342     0.77100
C1071       C  0.96057005  0.33294498  0.07261737     0.77600
C1072       C  0.87079015  0.33277336  0.07501194     0.76500
C1073       C  0.96625770  0.43347576  0.18820041     0.76900
C1074       C  0.97624150  0.33300165  0.25758917     0.78000
C1075       C  0.85799549  0.33356171  0.26122514     0.77100
C1076       C  0.79073213  0.34561197  0.30915358     0.80200
N1077       N  0.81299372  0.34441660  0.27946576    -0.78100
C1078       C  0.83345394  0.33295685  0.29398349     0.82600
N1079       N  0.83127420  0.32175761  0.33855169    -0.78100
C1080       C  0.80904991  0.32309358  0.36846363     0.82700
N1081       N  0.78945064  0.33536405  0.35359017    -0.79800
C1082       C  0.55592296  0.34522736  0.30414283     0.80200
N1083       N  0.54658921  0.33236757  0.34752193    -0.78100
C1084       C  0.01442964  0.31882095  0.36193169     0.82600
N1085       N  0.99099030  0.31844867  0.33275978    -0.78100
C1086       C  0.00025001  0.33168784  0.28927696     0.82700
N1087       N  0.53244959  0.34480529  0.27523116    -0.79800
Zn1088     Zn  0.73861298  0.47973512  0.58209877     1.49700
Zn1089     Zn  0.73392029  0.03752511  0.51941194     1.49400
Zn1090     Zn  0.80000603  0.03501140  0.51391116     1.49100
Zn1091     Zn  0.72921982  0.47399343  0.47931098     1.49500
O1092       O  0.75205638  0.00748576  0.52581455    -1.84200
O1093       O  0.71016871  0.49186416  0.62032199    -0.74800
O1094       O  0.76935980  0.08695737  0.52629904    -0.74600
O1095       O  0.82086423  0.02081679  0.56566446    -0.74100
O1096       O  0.70084345  0.02478177  0.57240242    -0.74800
O1097       O  0.78000480  0.48979103  0.61652070    -0.74400
O1098       O  0.81699183  0.08621934  0.52061082    -0.75000
O1099       O  0.75959318  0.48418332  0.42695812    -0.74400
O1100       O  0.71410569  0.03166761  0.45311851    -0.75200
O1101       O  0.81039248  0.02533286  0.44644513    -0.74500
O1102       O  0.69054395  0.47706473  0.45756619    -0.75000
O1103       O  0.71151407  0.42579250  0.49531370    -0.74900
O1104       O  0.71202485  0.42807753  0.57202941    -0.74700
C1105       C  0.69562372  0.50837583  0.61045754     0.77100
C1106       C  0.80129088  0.10244440  0.52519438     0.77600
C1107       C  0.81056898  0.50459118  0.60411892     0.76500
C1108       C  0.79011173  0.00376464  0.41710977     0.76900
C1109       C  0.69655471  0.00291470  0.43485426     0.78000
C1110       C  0.70440145  0.41114538  0.53436405     0.77100
Zn1111     Zn  0.53876097  0.14256204  0.84206907     1.49700
Zn1112     Zn  0.60534520  0.14397508  0.84196507     1.49400
Zn1113     Zn  0.60143691  0.20562083  0.79724167     1.49100
Zn1114     Zn  0.59849983  0.19653232  0.90781589     1.49500
O1115       O  0.58629399  0.17263629  0.84836447    -1.84200
O1116       O  0.52392186  0.09344229  0.85229982    -0.74800
O1117       O  0.62317390  0.15010690  0.77688038    -0.74600
O1118       O  0.56330036  0.19779262  0.75400199    -0.74100
O1119       O  0.57217219  0.09409653  0.85051972    -0.74800
O1120       O  0.52551076  0.14648378  0.77648275    -0.74400
O1121       O  0.63185663  0.19967550  0.75288263    -0.75000
O1122       O  0.62611667  0.24849227  0.89723164    -0.74400
O1123       O  0.63968031  0.15552454  0.89153180    -0.75200
O1124       O  0.62579647  0.25305749  0.81998822    -0.74500
O1125       O  0.62591176  0.18140312  0.94565993    -0.75000
O1126       O  0.55569071  0.18364509  0.94357412    -0.74900
O1127       O  0.51573845  0.15427726  0.89091919    -0.74700
C1128       C  0.54041229  0.07809876  0.85416690     0.77100
C1129       C  0.63263404  0.17292037  0.74605574     0.77600
C1130       C  0.53707389  0.16983693  0.74632435     0.76500
C1131       C  0.63429351  0.26636766  0.86014352     0.76900
C1132       C  0.64218072  0.16717909  0.93253901     0.78000
C1133       C  0.52508370  0.16809131  0.93077815     0.77100
C1134       C  0.61590822  0.12377676  0.63989085     0.80200
N1135       N  0.63934530  0.14577449  0.60992798    -0.78100
C1136       C  0.66202250  0.17709467  0.62436387     0.82600
N1137       N  0.66113936  0.18681734  0.66905306    -0.78100
C1138       C  0.63778619  0.16460220  0.69894770     0.82700
N1139       N  0.61582726  0.13360828  0.68407235    -0.79800
C1140       C  0.00129729  0.12301850  0.63784351     0.80200
N1141       N  0.01181732  0.13107161  0.68255736    -0.78100
C1142       C  0.52237916  0.16217335  0.69944376     0.82600
N1143       N  0.52196119  0.18573594  0.67132128    -0.78100
C1144       C  0.51074940  0.17751510  0.62658759     0.82700
N1145       N  0.00087406  0.14650522  0.61024626    -0.79800
Zn1146     Zn  0.64072097  0.10764914  0.17357652     1.49700
Zn1147     Zn  0.63867910  0.03946072  0.19186023     1.49400
Zn1148     Zn  0.69868178  0.09399363  0.13394402     1.49100
Zn1149     Zn  0.69857585  0.10562742  0.23970332     1.49500
O1150       O  0.66860318  0.08693216  0.18517985    -1.84200
O1151       O  0.58981697  0.07275028  0.18073535    -0.74800
O1152       O  0.64198036  0.01452254  0.13670369    -0.74600
O1153       O  0.69323558  0.12235219  0.08989789    -0.74100
O1154       O  0.58951241  0.02558930  0.19696718    -0.74800
O1155       O  0.64981411  0.12886547  0.10706504    -0.74400
O1156       O  0.68549695  0.05277600  0.09673480    -0.75000
O1157       O  0.74800263  0.13337975  0.22275053    -0.74400
O1158       O  0.65378313  0.02512242  0.24774693    -0.75200
O1159       O  0.74817784  0.11738333  0.15005152    -0.74500
O1160       O  0.69366164  0.06978659  0.28467896    -0.75000
O1161       O  0.68866257  0.13696654  0.27234592    -0.74900
O1162       O  0.65496665  0.14413671  0.22329672    -0.74700
C1163       C  0.57385894  0.04142359  0.18999933     0.77100
C1164       C  0.66166012  0.02310974  0.10198597     0.77600
C1165       C  0.67368382  0.13328395  0.07991056     0.76500
C1166       C  0.76372756  0.13390529  0.18607805     0.76900
C1167       C  0.67488135  0.03836204  0.28083817     0.78000
C1168       C  0.67295788  0.15181512  0.26028820     0.77100
C1169       C  0.66839216  0.22506099  0.30050689     0.80200
N1170       N  0.68181802  0.22942373  0.34379643    -0.78100
C1171       C  0.69326927  0.20937788  0.35995161     0.82600
N1172       N  0.69115290  0.18441462  0.33261504    -0.78100
C1173       C  0.67660484  0.17915779  0.28975040     0.82700
N1174       N  0.66532729  0.19937745  0.27414474    -0.79800
C1175       C  0.66878064  0.46079581  0.32162000     0.80200
N1176       N  0.66916046  0.48494470  0.29496436    -0.78100
C1177       C  0.67816668  0.01544798  0.31242829     0.82600
N1178       N  0.68738123  0.02252685  0.35811512    -0.78100
C1179       C  0.68635337  0.99794740  0.38568838     0.82700
N1180       N  0.67683824  0.46738604  0.36718778    -0.79800
C1181       C  0.71979996  0.17195483  0.97305473     0.80200
N1182       N  0.71148636  0.16026338  0.01684185    -0.78100
C1183       C  0.68081911  0.15055452  0.03485142     0.82600
N1184       N  0.65762541  0.15314944  0.00841470    -0.78100
C1185       C  0.66599223  0.16525739  0.96397557     0.82700
N1186       N  0.69671499  0.17423210  0.94666522    -0.79800
Zn1187     Zn  0.58953496  0.39598050  0.89925815     1.49700
Zn1188     Zn  0.53740481  0.40451838  0.83708332     1.49400
Zn1189     Zn  0.60588867  0.46888474  0.85860426     1.49100
Zn1190     Zn  0.60437327  0.40797225  0.79585309     1.49500
O1191       O  0.58461262  0.41996437  0.84806876    -1.84200
O1192       O  0.54561813  0.36763593  0.93064741    -0.74800
O1193       O  0.52431648  0.44020114  0.84554521    -0.74600
O1194       O  0.63245883  0.48165787  0.92159602    -0.74100
O1195       O  0.50824632  0.36847643  0.88211573    -0.74800
O1196       O  0.61609824  0.42973855  0.94485454    -0.74400
O1197       O  0.57198999  0.48538618  0.86415095    -0.75000
O1198       O  0.63217536  0.44900043  0.75898003    -0.74400
O1199       O  0.52769121  0.38953794  0.77114286    -0.75200
O1200       O  0.62995460  0.49015209  0.79705430    -0.74500
O1201       O  0.56827695  0.37968343  0.74819029    -0.75000
O1202       O  0.63311061  0.38680019  0.81414475    -0.74900
O1203       O  0.61473686  0.37031401  0.88595427    -0.74700
C1204       C  0.51563205  0.35885115  0.91954218     0.77100
C1205       C  0.54055850  0.47094273  0.85668377     0.77600
C1206       C  0.63145643  0.46093237  0.95216803     0.76500
C1207       C  0.63700503  0.47855310  0.76090584     0.76900
C1208       C  0.54113575  0.38000857  0.74056725     0.78000
C1209       C  0.63271206  0.37150903  0.85136770     0.77100
C1210       C  0.00389183  0.39143022  0.63398042     0.80200
N1211       N  0.01578563  0.39423521  0.67787739    -0.78100
C1212       C  0.52678264  0.37375768  0.69374945     0.82600
N1213       N  0.52488457  0.34909281  0.66586752    -0.78100
C1214       C  0.51221102  0.34564040  0.62202843     0.82700
N1215       N  0.00231931  0.36697968  0.60621222    -0.79800
C1216       C  0.62702481  0.01845659  0.65606909     0.80200
N1217       N  0.62484282  0.00795177  0.70090100    -0.78100
C1218       C  0.64555055  0.49707139  0.71691334     0.82600
N1219       N  0.66826494  0.49621684  0.68743663    -0.78100
C1220       C  0.67136927  0.50810367  0.64325308     0.82700
N1221       N  0.65081417  0.01901019  0.62818016    -0.79800
C1222       C  0.94516024  0.28230920  0.96649048     0.80200
N1223       N  0.46781110  0.30500403  0.93658017    -0.78100
C1224       C  0.48898299  0.33664480  0.95065801     0.82600
N1225       N  0.98759474  0.34623923  0.99509775    -0.78100
C1226       C  0.96494828  0.32371186  0.02530055     0.82700
N1227       N  0.94430438  0.29190603  0.01092127    -0.79800
C1228       C  0.66798666  0.95184414  0.06037246     0.80200
N1229       N  0.65757127  0.44937515  0.01581350    -0.78100
C1230       C  0.64805148  0.47045953  0.99778240     0.82600
N1231       N  0.64884837  0.99493636  0.02524590    -0.78100
C1232       C  0.65914123  0.99733194  0.07055096     0.82700
N1233       N  0.66865612  0.97601026  0.08752020    -0.79800
C1234       C  0.98513377  0.02275416  0.18962413     0.80200
N1235       N  0.96815418  0.48850043  0.19043409    -0.78100
C1236       C  0.98493846  0.47103683  0.19197663     0.82600
N1237       N  0.51917326  0.48844062  0.19240819    -0.78100
C1238       C  0.53649064  0.02267033  0.19155456     0.82700
N1239       N  0.51922942  0.03949956  0.18978562    -0.81000
C1240       C  0.81912416  0.19098409  0.52963363     0.80200
N1241       N  0.85337404  0.20816745  0.52922650    -0.78100
C1242       C  0.87110258  0.19162955  0.52932350     0.82600
N1243       N  0.85416366  0.15749934  0.52825041    -0.78100
C1244       C  0.81994616  0.13986322  0.52831834     0.82700
N1245       N  0.80271024  0.15689716  0.52882076    -0.79800
C1246       C  0.68667853  0.32334725  0.52523720     0.80200
N1247       N  0.70335338  0.35720577  0.53087170    -0.78100
C1248       C  0.68618975  0.37409835  0.53466544     0.82600
N1249       N  0.65211736  0.35696006  0.53105013    -0.78100
C1250       C  0.63510997  0.32312598  0.52532781     0.82700
N1251       N  0.65261035  0.30657552  0.52247003    -0.79800
C1252       C  0.52240559  0.48993525  0.86016651     0.80200
N1253       N  0.98832554  0.47321107  0.86182464    -0.78100
C1254       C  0.97110729  0.49005211  0.86330223     0.82600
N1255       N  0.98813674  0.02399439  0.86140437    -0.78100
C1256       C  0.52225876  0.04118098  0.85932154     0.82700
N1257       N  0.53926771  0.02398554  0.85888037    -0.79800
C1258       C  0.65250045  0.35400836  0.85415070     0.80200
N1259       N  0.68659088  0.37088994  0.84892358    -0.78100
C1260       C  0.70432634  0.35431684  0.85073784     0.82600
N1261       N  0.68727317  0.32042666  0.85670230    -0.78100
C1262       C  0.65328853  0.30337899  0.86223543     0.82700
N1263       N  0.63620911  0.32036432  0.86072692    -0.79800
C1264       C  0.85175512  0.15315890  0.18358963     0.80200
N1265       N  0.81780989  0.13634956  0.18328019    -0.78100
C1266       C  0.80059799  0.15304851  0.18565355     0.82600
N1267       N  0.81760145  0.18711833  0.18698246    -0.78100
C1268       C  0.85181150  0.20445462  0.18616586     0.82700
N1269       N  0.86875381  0.18720300  0.18495167    -0.79800
C1270       C  0.60681312  0.03318904  0.63927893    -0.00200
C1271       C  0.58652378  0.03775225  0.67134804    -0.12100
C1272       C  0.58072115  0.06442582  0.66596559     0.02000
C1273       C  0.59735662  0.08755700  0.62950827    -0.00300
C1274       C  0.60785425  0.07667597  0.59081236    -0.12000
C1275       C  0.61278485  0.04935287  0.59536733     0.01900
H1276       H  0.57878945  0.02340315  0.70333339     0.14900
H1277       H  0.61739333  0.09235163  0.56013423     0.14900
C1278       C  0.62736067  0.04131166  0.55638115     0.36500
C1279       C  0.56293662  0.07048337  0.70268850     0.36500
N1280       N  0.63911333  0.03505662  0.52507131    -0.43800
N1281       N  0.54917004  0.07537368  0.73272258    -0.43800
C1282       C  0.59212744  0.36588455  0.29334900    -0.00200
C1283       C  0.61534206  0.36899253  0.32773267    -0.12100
C1284       C  0.64557099  0.39891341  0.33266850     0.02000
C1285       C  0.65176465  0.42606359  0.30376876    -0.00300
C1286       C  0.63338565  0.41935665  0.26210127    -0.12000
C1287       C  0.60367114  0.38913936  0.25631349     0.01900
H1288       H  0.60839894  0.34977959  0.35400248     0.14900
H1289       H  0.63959979  0.43899014  0.23674815     0.14900
C1290       C  0.58434976  0.38447665  0.21447666     0.36500
C1291       C  0.66831161  0.40185197  0.36940006     0.36500
N1292       N  0.56906808  0.38084608  0.18076908    -0.43800
N1293       N  0.68669552  0.40401895  0.39850255    -0.43800
C1294       C  0.81583631  0.24787846  0.95425953    -0.00200
C1295       C  0.81111269  0.22407611  0.98816678    -0.12100
C1296       C  0.78102871  0.19386208  0.98983759     0.02000
C1297       C  0.75526759  0.18845490  0.95808250    -0.00300
C1298       C  0.76419603  0.20748044  0.91702041    -0.12000
C1299       C  0.79489825  0.23707526  0.91440776     0.01900
H1300       H  0.82863473  0.23065350  0.01677575     0.14900
H1301       H  0.74585690  0.20174051  0.88964970     0.14900
C1302       C  0.80223486  0.25725052  0.87290590     0.36500
C1303       C  0.77625738  0.17103022  0.02728125     0.36500
N1304       N  0.80814425  0.27340900  0.83965243    -0.43800
N1305       N  0.77272701  0.15282972  0.05728216    -0.43800
C1306       C  0.98373264  0.08750408  0.62324492    -0.00200
C1307       C  0.98007814  0.06355336  0.65638135    -0.12100
C1308       C  0.95056141  0.03279821  0.65803839     0.02000
C1309       C  0.92435854  0.02694322  0.62697110    -0.00300
C1310       C  0.93252304  0.04620442  0.58615658    -0.12000
C1311       C  0.96251696  0.07653320  0.58372963     0.01900
H1312       H  0.99789879  0.07032290  0.68460440     0.14900
H1313       H  0.91389312  0.04007770  0.55908073     0.14900
C1314       C  0.96868827  0.09707858  0.54290721     0.36500
C1315       C  0.94672533  0.00977461  0.69475656     0.36500
N1316       N  0.97354643  0.11340424  0.51005846    -0.43800
N1317       N  0.94393658  0.99142425  0.72416069    -0.43800
C1318       C  0.92203240  0.40285445  0.62321449    -0.00200
C1319       C  0.94678727  0.42404846  0.65501948    -0.12100
C1320       C  0.97856624  0.42729827  0.65382796     0.02000
C1321       C  0.98497501  0.40844607  0.62085406    -0.00300
C1322       C  0.96415585  0.39649101  0.58140642    -0.12000
C1323       C  0.93240806  0.39337242  0.58233601     0.01900
H1324       H  0.94022013  0.43447509  0.68429609     0.14900
H1325       H  0.97032457  0.38499696  0.55301714     0.14900
C1326       C  0.91024177  0.37695237  0.54345480     0.36500
C1327       C  0.00219261  0.44662728  0.69000289     0.36500
N1328       N  0.89266449  0.36374647  0.51215273    -0.43800
N1329       N  0.02090496  0.46209457  0.71920140    -0.43800
C1330       C  0.74686006  0.93666236  0.06530803    -0.00200
C1331       C  0.73886030  0.94643411  0.10759424    -0.12100
C1332       C  0.70813008  0.94510817  0.11258539     0.02000
C1333       C  0.68567299  0.93387109  0.07450575    -0.00300
C1334       C  0.68954158  0.41422503  0.04030943    -0.12000
C1335       C  0.72046369  0.41598808  0.03486606     0.01900
H1336       H  0.75794566  0.95944089  0.13391911     0.14900
H1337       H  0.67074763  0.40218220  0.01331487     0.14900
C1338       C  0.72528743  0.39969330  0.99505189     0.36500
C1339       C  0.70273211  0.95967303  0.15390912     0.36500
N1340       N  0.72913107  0.38671264  0.96305052    -0.43800
N1341       N  0.69887731  0.97159263  0.18711025    -0.43800
C1342       C  0.43189603  0.18809194  0.95318960    -0.00200
C1343       C  0.91179650  0.19199024  0.98661321    -0.12100
C1344       C  0.91002812  0.22126764  0.98769768     0.02000
C1345       C  0.92816679  0.24631355  0.95416693    -0.00300
C1346       C  0.43851389  0.23709747  0.91333683    -0.12000
C1347       C  0.44050193  0.20789365  0.91257475     0.01900
H1348       H  0.90176400  0.17490049  0.01583471     0.14900
H1349       H  0.44941994  0.25460731  0.88473133     0.14900
C1350       C  0.45475134  0.20099567  0.87214643     0.36500
C1351       C  0.89350194  0.22647392  0.02692225     0.36500
N1352       N  0.46613560  0.19539014  0.83978784    -0.43800
N1353       N  0.88056216  0.23051049  0.05882744    -0.43800
C1354       C  0.77213902  0.42376292  0.29528606    -0.00200
C1355       C  0.75273986  0.39908914  0.32807056    -0.12100
C1356       C  0.75290953  0.36897513  0.32865983     0.02000
C1357       C  0.77327562  0.36409907  0.29632072    -0.00300
C1358       C  0.78414219  0.38435533  0.25643834    -0.12000
C1359       C  0.78334865  0.41415394  0.25536761     0.01900
H1360       H  0.74115849  0.40480812  0.35677813     0.14900
H1361       H  0.79701984  0.37928594  0.22876848     0.14900
C1362       C  0.79747937  0.43562526  0.21530950     0.36500
C1363       C  0.73493515  0.34550539  0.36554470     0.36500
N1364       N  0.80892052  0.45264001  0.18308109    -0.43800
N1365       N  0.72050134  0.32688879  0.39525204    -0.43800
C1366       C  0.59030666  0.24284462  0.28945146    -0.00200
C1367       C  0.59998313  0.23365280  0.24815973    -0.12100
C1368       C  0.63036215  0.23391995  0.24642276     0.02000
C1369       C  0.65049389  0.24293753  0.28696306    -0.00300
C1370       C  0.64545855  0.26166783  0.32130791    -0.12000
C1371       C  0.61540394  0.26208871  0.32256044     0.01900
H1372       H  0.58224050  0.22209297  0.21983474     0.14900
H1373       H  0.66260431  0.27204201  0.35050186     0.14900
C1374       C  0.60981149  0.27906142  0.36084819     0.36500
C1375       C  0.63816205  0.22138356  0.20496027     0.36500
N1376       N  0.60544492  0.29265812  0.39161509    -0.43800
N1377       N  0.64433851  0.21134636  0.17166999    -0.43800
Zn1378     Zn  0.96617487  0.60820579  0.17030472     1.49700
Zn1379     Zn  0.89428150  0.59440380  0.12980153     1.49400
Zn1380     Zn  0.89968650  0.53930541  0.18569743     1.49100
Zn1381     Zn  0.90594326  0.60495957  0.23570297     1.49500
O1382       O  0.91742455  0.58699697  0.18070501    -1.84200
O1383       O  0.97814286  0.62979609  0.10383496    -0.74800
O1384       O  0.86582384  0.55337325  0.09224823    -0.74600
O1385       O  0.93500035  0.52567216  0.19212557    -0.74100
O1386       O  0.92805028  0.62280610  0.08601396    -0.74800
O1387       O  0.98214294  0.57305095  0.17783791    -0.74400
O1388       O  0.87185968  0.51460403  0.12952852    -0.75000
O1389       O  0.87399514  0.56839473  0.27880218    -0.74400
O1390       O  0.86858586  0.61811845  0.14626818    -0.75200
O1391       O  0.86958340  0.52428644  0.24076645    -0.74500
O1392       O  0.88467756  0.63306568  0.21931165    -0.75000
O1393       O  0.94677341  0.63563447  0.27013168    -0.74900
O1394       O  0.98807287  0.64449936  0.22102727    -0.74700
C1395       C  0.95860701  0.63400435  0.07641114     0.77100
C1396       C  0.86026714  0.52367280  0.09585016     0.77600
C1397       C  0.96661237  0.54160463  0.18660136     0.76500
C1398       C  0.86123689  0.53702504  0.27394005     0.76900
C1399       C  0.86956937  0.63414473  0.18283822     0.78000
C1400       C  0.97740415  0.65118199  0.25853894     0.77100
C1401       C  0.55452085  0.72389839  0.30268136     0.80200
N1402       N  0.54505720  0.72636620  0.34642990    -0.78100
C1403       C  0.01360552  0.70566371  0.36178588     0.82600
N1404       N  0.99101989  0.68160642  0.33296879    -0.78100
C1405       C  0.00071564  0.67795173  0.28942199     0.82700
N1406       N  0.53225181  0.69913027  0.27457104    -0.79800
C1407       C  0.78815604  0.95915105  0.31021583     0.80200
N1408       N  0.81481070  0.98254196  0.28678994    -0.78100
C1409       C  0.83404802  0.51369778  0.30396302     0.82600
N1410       N  0.82710545  0.52193350  0.34667846    -0.78100
C1411       C  0.80040777  0.49813474  0.37108232     0.82700
N1412       N  0.78127269  0.96720082  0.35243812    -0.79800
C1413       C  0.45139586  0.67215913  0.96849687     0.80200
N1414       N  0.47747757  0.67520342  0.94320988    -0.78100
C1415       C  0.49929042  0.66661905  0.96144106     0.82600
N1416       N  0.49510031  0.65442532  0.00583080    -0.78100
C1417       C  0.96873161  0.65118693  0.03131443     0.82700
N1418       N  0.94742180  0.66015611  0.01228693    -0.79800
C1419       C  0.78197832  0.95551412  0.04925275     0.80200
N1420       N  0.78965172  0.95561289  0.00361391    -0.78100
C1421       C  0.82091152  0.97649874  0.98752138     0.82600
N1422       N  0.84494908  0.49802183  0.01765179    -0.78100
C1423       C  0.83702029  0.49865529  0.06324081     0.82700
N1424       N  0.80584710  0.47733361  0.07864013    -0.79800
Zn1425     Zn  0.76265504  0.74294012  0.57153678     1.49700
Zn1426     Zn  0.77065261  0.80453860  0.50893527     1.49400
Zn1427     Zn  0.77107345  0.74191105  0.46148463     1.49100
Zn1428     Zn  0.70489261  0.73942727  0.50435714     1.49500
O1429       O  0.75253024  0.75676444  0.51249768    -1.84200
O1430       O  0.79107421  0.78450036  0.61044213    -0.74800
O1431       O  0.78973236  0.81884239  0.44502800    -0.74600
O1432       O  0.79477173  0.71692320  0.48461371    -0.74100
O1433       O  0.80424488  0.82571571  0.55922117    -0.74800
O1434       O  0.78893126  0.71683639  0.56164720    -0.74400
O1435       O  0.80285263  0.78092239  0.42104978    -0.75000
O1436       O  0.69446127  0.72495908  0.43788219    -0.74400
O1437       O  0.73717475  0.82088061  0.51839931    -0.75200
O1438       O  0.73464024  0.71478333  0.41407197    -0.74500
O1439       O  0.68929034  0.77337945  0.51458084    -0.75000
O1440       O  0.67940829  0.70315211  0.55119729    -0.74900
O1441       O  0.71857176  0.71456302  0.60549463    -0.74700
C1442       C  0.80720467  0.81526650  0.59902972     0.77100
C1443       C  0.80176117  0.80762186  0.41463077     0.77600
C1444       C  0.79991123  0.70915654  0.52529321     0.76500
C1445       C  0.70779104  0.71568160  0.40674508     0.76900
C1446       C  0.70533851  0.80497816  0.51936740     0.78000
C1447       C  0.68806288  0.69954635  0.59206432     0.77100
Zn1448     Zn  0.80874060  0.94060780  0.84278595     1.49700
Zn1449     Zn  0.86567471  0.93375242  0.90452938     1.49400
Zn1450     Zn  0.80832669  0.87212478  0.83855169     1.49100
Zn1451     Zn  0.87186583  0.93316964  0.80386473     1.49500
O1452       O  0.83734018  0.92024083  0.84919560    -1.84200
O1453       O  0.81440089  0.96599554  0.90535399    -0.74800
O1454       O  0.85818771  0.89238643  0.93491191    -0.74600
O1455       O  0.75786253  0.85675457  0.84731236    -0.74100
O1456       O  0.85026229  0.95655687  0.94647168    -0.74800
O1457       O  0.75787215  0.90469714  0.84212369    -0.74400
O1458       O  0.82358651  0.85068125  0.88749683    -0.75000
O1459       O  0.86985248  0.89429138  0.77338707    -0.74400
O1460       O  0.91662884  0.96320547  0.89782195    -0.75200
O1461       O  0.81522925  0.86057061  0.77076461    -0.74500
O1462       O  0.92026293  0.96201324  0.82154662    -0.75000
O1463       O  0.86207188  0.95703323  0.75728049    -0.74900
O1464       O  0.82135981  0.96704348  0.77899657    -0.74700
C1465       C  0.83005680  0.96758062  0.94327517     0.77100
C1466       C  0.84224885  0.86168190  0.92380208     0.77600
C1467       C  0.74191672  0.87286878  0.84628675     0.76500
C1468       C  0.84407686  0.87265511  0.75206251     0.76900
C1469       C  0.93419499  0.97125945  0.86097505     0.78000
C1470       C  0.84334814  0.96931725  0.74937587     0.77100
C1471       C  0.88684350  0.88440805  0.63975294     0.80200
N1472       N  0.88004861  0.88642795  0.68509947    -0.78100
C1473       C  0.84945031  0.86576597  0.70371973     0.82600
N1474       N  0.82495950  0.84199872  0.67639417    -0.78100
C1475       C  0.83187122  0.83971264  0.63068827     0.82700
N1476       N  0.86244776  0.86091526  0.61287385    -0.79800
C1477       C  0.88903603  0.50989354  0.64260301     0.80200
N1478       N  0.86577164  0.51247432  0.61709104    -0.78100
C1479       C  0.83476256  0.00208980  0.63431614     0.82600
N1480       N  0.82653077  0.98881193  0.67822954    -0.78100
C1481       C  0.85011056  0.98671031  0.70434120     0.82700
N1482       N  0.88093120  0.49729471  0.68607256    -0.79800
C1483       C  0.83433585  0.78354664  0.96789652     0.80200
N1484       N  0.84550274  0.79232437  0.01236620    -0.78100
C1485       C  0.85710071  0.82402486  0.02776304     0.82600
N1486       N  0.85747295  0.84724337  0.99845422    -0.78100
C1487       C  0.84526463  0.83824733  0.95441403     0.82700
N1488       N  0.83381616  0.80665639  0.93960933    -0.79800
Zn1489     Zn  0.97967394  0.74554969  0.57054790     1.49700
Zn1490     Zn  0.53264839  0.80377566  0.50438582     1.49400
Zn1491     Zn  0.53290692  0.73893167  0.50503912     1.49100
Zn1492     Zn  0.96937502  0.74019654  0.46003634     1.49500
O1493       O  0.00280991  0.75641453  0.51105720    -1.84200
O1494       O  0.99536930  0.78927300  0.60551471    -0.74800
O1495       O  0.58212627  0.82046344  0.51716072    -0.74600
O1496       O  0.52177324  0.70448840  0.55438030    -0.74100
O1497       O  0.51985335  0.82767924  0.54959532    -0.74800
O1498       O  0.99400063  0.71692089  0.60734134    -0.74400
O1499       O  0.58261192  0.77300270  0.51446685    -0.75000
O1500       O  0.97725114  0.71056209  0.41561385    -0.74400
O1501       O  0.52941044  0.81532734  0.43866404    -0.75200
O1502       O  0.52801212  0.72210011  0.43951914    -0.74500
O1503       O  0.97776691  0.77804711  0.41597388    -0.75000
O1504       O  0.92100455  0.71638491  0.48387642    -0.74900
O1505       O  0.92725075  0.72002727  0.56107774    -0.74700
C1506       C  0.50909170  0.81938215  0.59102364     0.77100
C1507       C  0.59809844  0.80462419  0.51901435     0.77600
C1508       C  0.50909370  0.70130982  0.59484455     0.76500
C1509       C  0.00509688  0.71168090  0.40858585     0.76900
C1510       C  0.00617012  0.80377498  0.40830482     0.78000
C1511       C  0.90839753  0.71045958  0.52475956     0.77100
Zn1512     Zn  0.87058961  0.80733214  0.17250551     1.49700
Zn1513     Zn  0.93587326  0.80715487  0.17026509     1.49400
Zn1514     Zn  0.93483009  0.87065714  0.12566429     1.49100
Zn1515     Zn  0.93156791  0.86262364  0.23535373     1.49500
O1516       O  0.91854576  0.83758993  0.17714805    -1.84200
O1517       O  0.85440340  0.75755333  0.18239064    -0.74800
O1518       O  0.95051149  0.81047255  0.10391050    -0.74600
O1519       O  0.89636713  0.86131336  0.08254435    -0.74100
O1520       O  0.90215832  0.75740785  0.17977131    -0.74800
O1521       O  0.85859198  0.81017977  0.10618265    -0.74400
O1522       O  0.96306168  0.86131707  0.08008286    -0.75000
O1523       O  0.95747399  0.91510751  0.22489202    -0.74400
O1524       O  0.97190996  0.81914536  0.21777053    -0.75200
O1525       O  0.95937342  0.92006609  0.14770438    -0.74500
O1526       O  0.96109861  0.84857485  0.27012287    -0.75000
O1527       O  0.88892177  0.84854344  0.27273504    -0.74900
O1528       O  0.84767171  0.82002376  0.22131949    -0.74700
C1529       C  0.87038689  0.74166714  0.18321334     0.77100
C1530       C  0.96057018  0.83294488  0.07261714     0.77600
C1531       C  0.87079034  0.83277321  0.07501166     0.76500
C1532       C  0.96625792  0.93347579  0.18820007     0.76900
C1533       C  0.97624142  0.83300139  0.25758881     0.78000
C1534       C  0.85799557  0.83356177  0.26122487     0.77100
C1535       C  0.79073222  0.84561206  0.30915319     0.80200
N1536       N  0.81299381  0.84441668  0.27946543    -0.78100
C1537       C  0.83345405  0.83295698  0.29398323     0.82600
N1538       N  0.83127432  0.82175779  0.33855146    -0.78100
C1539       C  0.80905011  0.82309390  0.36846342     0.82700
N1540       N  0.78945082  0.83536432  0.35358986    -0.79800
C1541       C  0.55592346  0.84522773  0.30414303     0.80200
N1542       N  0.54658964  0.83236773  0.34752201    -0.78100
C1543       C  0.01442970  0.81882102  0.36193151     0.82600
N1544       N  0.99099028  0.81844856  0.33275953    -0.78100
C1545       C  0.00024989  0.83168751  0.28927657     0.82700
N1546       N  0.53245013  0.84480583  0.27523139    -0.79800
Zn1547     Zn  0.73861228  0.97973470  0.58209852     1.49700
Zn1548     Zn  0.73392081  0.53752565  0.51941224     1.49400
Zn1549     Zn  0.80000671  0.53501209  0.51391131     1.49100
Zn1550     Zn  0.72921925  0.97399299  0.47931063     1.49500
O1551       O  0.75205701  0.50748630  0.52581476    -1.84200
O1552       O  0.71016815  0.99186393  0.62032167    -0.74800
O1553       O  0.76936018  0.58695798  0.52629906    -0.74600
O1554       O  0.82086504  0.52081787  0.56566494    -0.74100
O1555       O  0.70084431  0.52478241  0.57240313    -0.74800
O1556       O  0.78000400  0.98979017  0.61652035    -0.74400
O1557       O  0.81699225  0.58622000  0.52061078    -0.75000
O1558       O  0.75959250  0.98418269  0.42695755    -0.74400
O1559       O  0.71410587  0.53166792  0.45311889    -0.75200
O1560       O  0.81039322  0.52533347  0.44644554    -0.74500
O1561       O  0.69054347  0.97706442  0.45756583    -0.75000
O1562       O  0.71151364  0.92579210  0.49531356    -0.74900
O1563       O  0.71202386  0.92807720  0.57202927    -0.74700
C1564       C  0.69562293  0.00837533  0.61045695     0.77100
C1565       C  0.80129128  0.60244504  0.52519434     0.77600
C1566       C  0.81056813  0.00459006  0.60411841     0.76500
C1567       C  0.79011241  0.50376523  0.41711028     0.76900
C1568       C  0.69655495  0.50291495  0.43485467     0.78000
C1569       C  0.70440076  0.91114502  0.53436396     0.77100
Zn1570     Zn  0.53876026  0.64256181  0.84206826     1.49700
Zn1571     Zn  0.60534476  0.64397509  0.84196492     1.49400
Zn1572     Zn  0.60143644  0.70562062  0.79724125     1.49100
Zn1573     Zn  0.59849876  0.69653191  0.90781553     1.49500
O1574       O  0.58629326  0.67263607  0.84836400    -1.84200
O1575       O  0.52392134  0.59344210  0.85229916    -0.74800
O1576       O  0.62317359  0.65010679  0.77688027    -0.74600
O1577       O  0.56330005  0.69779225  0.75400113    -0.74100
O1578       O  0.57217182  0.59409658  0.85051971    -0.74800
O1579       O  0.52551031  0.64648341  0.77648180    -0.74400
O1580       O  0.63185662  0.69967552  0.75288269    -0.75000
O1581       O  0.62611581  0.74849187  0.89723131    -0.74400
O1582       O  0.63967986  0.65552473  0.89153166    -0.75200
O1583       O  0.62579588  0.75305718  0.81998788    -0.74500
O1584       O  0.62591073  0.68140276  0.94565986    -0.75000
O1585       O  0.55568932  0.68364448  0.94357333    -0.74900
O1586       O  0.51573734  0.65427692  0.89091793    -0.74700
C1587       C  0.54041191  0.57809871  0.85416661     0.77100
C1588       C  0.63263395  0.67292036  0.74605574     0.77600
C1589       C  0.53707360  0.66983655  0.74632339     0.76500
C1590       C  0.63429286  0.76636728  0.86014322     0.76900
C1591       C  0.64218001  0.66717907  0.93253894     0.78000
C1592       C  0.52508238  0.66809078  0.93077702     0.77100
C1593       C  0.61590837  0.62377705  0.63989066     0.80200
N1594       N  0.63934551  0.64577485  0.60992792    -0.78100
C1595       C  0.66202270  0.67709497  0.62436399     0.82600
N1596       N  0.66113948  0.68681752  0.66905322    -0.78100
C1597       C  0.63778624  0.66460230  0.69894772     0.82700
N1598       N  0.61582735  0.63360842  0.68407221    -0.79800
C1599       C  0.00129833  0.62301900  0.63784391     0.80200
N1600       N  0.01181819  0.63107210  0.68255781    -0.78100
C1601       C  0.52237896  0.66217298  0.69944279     0.82600
N1602       N  0.52196102  0.68573557  0.67132027    -0.78100
C1603       C  0.51074916  0.67751467  0.62658663     0.82700
N1604       N  0.00087492  0.64650567  0.61024669    -0.79800
Zn1605     Zn  0.64072090  0.60764928  0.17357682     1.49700
Zn1606     Zn  0.63867912  0.53946086  0.19186060     1.49400
Zn1607     Zn  0.69868168  0.59399393  0.13394405     1.49100
Zn1608     Zn  0.69857587  0.60562750  0.23970370     1.49500
O1609       O  0.66860320  0.58693233  0.18518011    -1.84200
O1610       O  0.58981690  0.57275038  0.18073607    -0.74800
O1611       O  0.64198047  0.51452266  0.13670415    -0.74600
O1612       O  0.69323497  0.62235206  0.08989766    -0.74100
O1613       O  0.58951242  0.52558938  0.19696757    -0.74800
O1614       O  0.64981368  0.62886554  0.10706521    -0.74400
O1615       O  0.68549699  0.55277616  0.09673519    -0.75000
O1616       O  0.74800265  0.63337938  0.22275116    -0.74400
O1617       O  0.65378304  0.52512258  0.24774736    -0.75200
O1618       O  0.74817776  0.61738397  0.15005151    -0.74500
O1619       O  0.69366132  0.56978673  0.28467966    -0.75000
O1620       O  0.68866294  0.63696694  0.27234597    -0.74900
O1621       O  0.65496696  0.64413704  0.22329676    -0.74700
C1622       C  0.57385891  0.54142365  0.18999988     0.77100
C1623       C  0.66166024  0.52310987  0.10198645     0.77600
C1624       C  0.67368319  0.63328383  0.07991046     0.76500
C1625       C  0.76372751  0.63390537  0.18607839     0.76900
C1626       C  0.67488108  0.53836218  0.28083878     0.78000
C1627       C  0.67295832  0.65181557  0.26028813     0.77100
C1628       C  0.66839242  0.72506140  0.30050640     0.80200
N1629       N  0.68181827  0.72942426  0.34379598    -0.78100
C1630       C  0.69326961  0.70937850  0.35995128     0.82600
N1631       N  0.69115340  0.68441528  0.33261479    -0.78100
C1632       C  0.67660537  0.67915835  0.28975013     0.82700
N1633       N  0.66532770  0.69937787  0.27414437    -0.79800
C1634       C  0.66878141  0.96079584  0.32161930     0.80200
N1635       N  0.66916113  0.98494468  0.29496364    -0.78100
C1636       C  0.67816630  0.51544809  0.31242896     0.82600
N1637       N  0.68738109  0.52252701  0.35811569    -0.78100
C1638       C  0.68635326  0.49794756  0.38568892     0.82700
N1639       N  0.67683869  0.96738601  0.36718718    -0.79800
C1640       C  0.71979925  0.67195478  0.97305473     0.80200
N1641       N  0.71148559  0.66026323  0.01684174    -0.78100
C1642       C  0.68081837  0.65055436  0.03485131     0.82600
N1643       N  0.65762467  0.65314931  0.00841461    -0.78100
C1644       C  0.66599154  0.66525742  0.96397556     0.82700
N1645       N  0.69671434  0.67423216  0.94666522    -0.79800
Zn1646     Zn  0.58953461  0.89598007  0.89925793     1.49700
Zn1647     Zn  0.53740423  0.90451778  0.83708369     1.49400
Zn1648     Zn  0.60588837  0.96888418  0.85860388     1.49100
Zn1649     Zn  0.60437236  0.90797136  0.79585281     1.49500
O1650       O  0.58461209  0.91996376  0.84806860    -1.84200
O1651       O  0.54561793  0.86763539  0.93064742    -0.74800
O1652       O  0.52431609  0.94020073  0.84554556    -0.74600
O1653       O  0.63245863  0.98165756  0.92159553    -0.74100
O1654       O  0.50824590  0.86847606  0.88211639    -0.74800
O1655       O  0.61609791  0.92973825  0.94485426    -0.74400
O1656       O  0.57198984  0.98538581  0.86415036    -0.75000
O1657       O  0.63217371  0.94899932  0.75897901    -0.74400
O1658       O  0.52769020  0.88953687  0.77114341    -0.75200
O1659       O  0.62995426  0.99015146  0.79705390    -0.74500
O1660       O  0.56827559  0.87968183  0.74819086    -0.75000
O1661       O  0.63311022  0.88679979  0.81414436    -0.74900
O1662       O  0.61473660  0.87031369  0.88595395    -0.74700
C1663       C  0.51563181  0.85885069  0.91954259     0.77100
C1664       C  0.54055830  0.97094242  0.85668366     0.77600
C1665       C  0.63145616  0.96093209  0.95216765     0.76500
C1666       C  0.63700401  0.97855220  0.76090510     0.76900
C1667       C  0.54113449  0.88000717  0.74056784     0.78000
C1668       C  0.63271178  0.87150872  0.85136736     0.77100
C1669       C  0.00389188  0.89143054  0.63398099     0.80200
N1670       N  0.01578606  0.89423571  0.67787773    -0.78100
C1671       C  0.52678132  0.87375631  0.69374998     0.82600
N1672       N  0.52488353  0.84909167  0.66586776    -0.78100
C1673       C  0.51221033  0.84563956  0.62202848     0.82700
N1674       N  0.00231925  0.86697998  0.60621271    -0.79800
C1675       C  0.62702598  0.51845756  0.65606975     0.80200
N1676       N  0.62484399  0.50795282  0.70090171    -0.78100
C1677       C  0.64554950  0.99707052  0.71691263     0.82600
N1678       N  0.66826401  0.99621617  0.68743595    -0.78100
C1679       C  0.67136831  0.00810300  0.64325239     0.82700
N1680       N  0.65081525  0.51901099  0.62818087    -0.79800
C1681       C  0.94516082  0.78230933  0.96649005     0.80200
N1682       N  0.46781079  0.80500365  0.93658079    -0.78100
C1683       C  0.48898291  0.83664438  0.95065862     0.82600
N1684       N  0.98759503  0.84623935  0.99509770    -0.78100
C1685       C  0.96494853  0.82371185  0.02530033     0.82700
N1686       N  0.94430480  0.79190602  0.01092088    -0.79800
C1687       C  0.66798676  0.45184424  0.06037294     0.80200
N1688       N  0.65757117  0.94937505  0.01581303    -0.78100
C1689       C  0.64805126  0.97045935  0.99778197     0.82600
N1690       N  0.64884864  0.49493657  0.02524633    -0.78100
C1691       C  0.65914139  0.49733208  0.07055144     0.82700
N1692       N  0.66865623  0.47601038  0.08752069    -0.79800
C1693       C  0.98513384  0.52275424  0.18962456     0.80200
N1694       N  0.96815423  0.98850037  0.19043372    -0.78100
C1695       C  0.98493860  0.97103686  0.19197629     0.82600
N1696       N  0.51917328  0.98844066  0.19240781    -0.78100
C1697       C  0.53649059  0.52267031  0.19155499     0.82700
N1698       N  0.51922932  0.53949948  0.18978591    -0.81000
C1699       C  0.81912446  0.69098473  0.52963391     0.80200
N1700       N  0.85337434  0.70816812  0.52922692    -0.78100
C1701       C  0.87110291  0.69163023  0.52932387     0.82600
N1702       N  0.85416401  0.65750003  0.52825050    -0.78100
C1703       C  0.81994651  0.63986388  0.52831831     0.82700
N1704       N  0.80271058  0.65689780  0.52882082    -0.79800
C1705       C  0.68667813  0.82334704  0.52523698     0.80200
N1706       N  0.70335288  0.85720555  0.53087157    -0.78100
C1707       C  0.68618915  0.87409801  0.53466551     0.82600
N1708       N  0.65211676  0.85695962  0.53105044    -0.78100
C1709       C  0.63510947  0.82312555  0.52532812     0.82700
N1710       N  0.65260995  0.80657520  0.52247001    -0.79800
C1711       C  0.52240554  0.98993511  0.86016654     0.80200
N1712       N  0.98832549  0.97321098  0.86182387    -0.78100
C1713       C  0.97110708  0.99005186  0.86330113     0.82600
N1714       N  0.98813711  0.52399462  0.86140540    -0.78100
C1715       C  0.52225854  0.54118098  0.85932132     0.82700
N1716       N  0.53926762  0.52398567  0.85888044    -0.79800
C1717       C  0.65250013  0.85400803  0.85415031     0.80200
N1718       N  0.68659056  0.87088953  0.84892328    -0.78100
C1719       C  0.70432594  0.85431635  0.85073770     0.82600
N1720       N  0.68727267  0.82042617  0.85670223    -0.78100
C1721       C  0.65328801  0.80337860  0.86223518     0.82700
N1722       N  0.63620869  0.82036400  0.86072654    -0.79800
C1723       C  0.85175506  0.65315898  0.18359046     0.80200
N1724       N  0.81780982  0.63634959  0.18328093    -0.78100
C1725       C  0.80059792  0.65304855  0.18565389     0.82600
N1726       N  0.81760132  0.68711837  0.18698245    -0.78100
C1727       C  0.85181140  0.70445466  0.18616600     0.82700
N1728       N  0.86875370  0.68720306  0.18495226    -0.79800
C1729       C  0.60681430  0.53318997  0.63927931    -0.00200
C1730       C  0.58652454  0.53775287  0.67134803    -0.12100
C1731       C  0.58072146  0.56442612  0.66596520     0.02000
C1732       C  0.59735691  0.58755735  0.62950793    -0.00300
C1733       C  0.60785497  0.57667652  0.59081230    -0.12000
C1734       C  0.61278617  0.54935384  0.59536765     0.01900
H1735       H  0.57879010  0.52340372  0.70333334     0.14900
H1736       H  0.61739401  0.59235222  0.56013410     0.14900
C1737       C  0.62736272  0.54131316  0.55638185     0.36500
C1738       C  0.56293636  0.57048338  0.70268764     0.36500
N1739       N  0.63911608  0.53505868  0.52507230    -0.43800
N1740       N  0.54916939  0.57537349  0.73272133    -0.43800
C1741       C  0.59212798  0.86588489  0.29334925    -0.00200
C1742       C  0.61534264  0.86899284  0.32773287    -0.12100
C1743       C  0.64557186  0.89891353  0.33266807     0.02000
C1744       C  0.65176558  0.92606361  0.30376812    -0.00300
C1745       C  0.63338648  0.91935658  0.26210074    -0.12000
C1746       C  0.60367176  0.88913943  0.25631343     0.01900
H1747       H  0.60839947  0.84978008  0.35400294     0.14900
H1748       H  0.63960066  0.93898995  0.23674743     0.14900
C1749       C  0.58435028  0.88447673  0.21447676     0.36500
C1750       C  0.66831269  0.90185214  0.36939932     0.36500
N1751       N  0.56906850  0.88084620  0.18076927    -0.43800
N1752       N  0.68669681  0.90401929  0.39850161    -0.43800
C1753       C  0.81583602  0.74787790  0.95425983    -0.00200
C1754       C  0.81111198  0.72407559  0.98816731    -0.12100
C1755       C  0.78102786  0.69386172  0.98983799     0.02000
C1756       C  0.75526690  0.68845478  0.95808271    -0.00300
C1757       C  0.76419560  0.70748026  0.91702061    -0.12000
C1758       C  0.79489811  0.73707475  0.91440789     0.01900
H1759       H  0.82863388  0.73065290  0.01677645     0.14900
H1760       H  0.74585657  0.70174042  0.88964970     0.14900
C1761       C  0.80223544  0.75724968  0.87290557     0.36500
C1762       C  0.77625627  0.67102976  0.02728163     0.36500
N1763       N  0.80814543  0.77340789  0.83965172    -0.43800
N1764       N  0.77272564  0.65282914  0.05728248    -0.43800
C1765       C  0.98373385  0.58750457  0.62324534    -0.00200
C1766       C  0.98007919  0.56355389  0.65638200    -0.12100
C1767       C  0.95056228  0.53279889  0.65803931     0.02000
C1768       C  0.92435941  0.52694414  0.62697214    -0.00300
C1769       C  0.93252406  0.54620508  0.58615733    -0.12000
C1770       C  0.96251822  0.57653361  0.58373002     0.01900
H1771       H  0.99789986  0.57032342  0.68460503     0.14900
H1772       H  0.91389412  0.54007838  0.55908153     0.14900
C1773       C  0.96868983  0.59707878  0.54290722     0.36500
C1774       C  0.94672594  0.50977530  0.69475770     0.36500
N1775       N  0.97354821  0.61340428  0.51005825    -0.43800
N1776       N  0.94393691  0.49142492  0.72416195    -0.43800
C1777       C  0.92203253  0.90285533  0.62321497    -0.00200
C1778       C  0.94678723  0.92404885  0.65502046    -0.12100
C1779       C  0.97856611  0.92729843  0.65382920     0.02000
C1780       C  0.98497496  0.90844641  0.62085503    -0.00300
C1781       C  0.96415604  0.89649180  0.58140714    -0.12000
C1782       C  0.93240839  0.89337358  0.58233642     0.01900
H1783       H  0.94021996  0.93447523  0.68429727     0.14900
H1784       H  0.97032485  0.88499792  0.55301771     0.14900
C1785       C  0.91024236  0.87695418  0.54345476     0.36500
C1786       C  0.00219231  0.94662711  0.69000447     0.36500
N1787       N  0.89266525  0.86374884  0.51215235    -0.43800
N1788       N  0.02090456  0.96209421  0.71920320    -0.43800
C1789       C  0.74686027  0.43666272  0.06530894    -0.00200
C1790       C  0.73886035  0.44643432  0.10759514    -0.12100
C1791       C  0.70813006  0.44510829  0.11258608     0.02000
C1792       C  0.68567312  0.43387126  0.07450627    -0.00300
C1793       C  0.68954128  0.91422477  0.04030892    -0.12000
C1794       C  0.72046337  0.91598781  0.03486522     0.01900
H1795       H  0.75794565  0.45944108  0.13392006     0.14900
H1796       H  0.67074719  0.90218191  0.01331453     0.14900
C1797       C  0.72528694  0.89969300  0.99505094     0.36500
C1798       C  0.70273178  0.45967283  0.15390991     0.36500
N1799       N  0.72913041  0.88671228  0.96304951    -0.43800
N1800       N  0.69887662  0.47159203  0.18711119    -0.43800
C1801       C  0.43189445  0.68809104  0.95318929    -0.00200
C1802       C  0.91179706  0.69199028  0.98661245    -0.12100
C1803       C  0.91002862  0.72126765  0.98769675     0.02000
C1804       C  0.92816763  0.74631371  0.95416632    -0.00300
C1805       C  0.43851276  0.73709699  0.91333720    -0.12000
C1806       C  0.44050028  0.70789288  0.91257456     0.01900
H1807       H  0.90176427  0.67490040  0.01583381     0.14900
H1808       H  0.44941878  0.75460685  0.88473170     0.14900
C1809       C  0.45474916  0.70099472  0.87214581     0.36500
C1810       C  0.89350196  0.72647380  0.02692083     0.36500
N1811       N  0.46613303  0.69538906  0.83978689    -0.43800
N1812       N  0.88056187  0.73051034  0.05882567    -0.43800
C1813       C  0.77213852  0.92376256  0.29528527    -0.00200
C1814       C  0.75273941  0.89908871  0.32806973    -0.12100
C1815       C  0.75290926  0.86897479  0.32865903     0.02000
C1816       C  0.77327558  0.86409897  0.29632012    -0.00300
C1817       C  0.78414219  0.88435527  0.25643777    -0.12000
C1818       C  0.78334833  0.91415372  0.25536692     0.01900
H1819       H  0.74115793  0.90480760  0.35677722     0.14900
H1820       H  0.79702002  0.87928605  0.22876804     0.14900
C1821       C  0.79747889  0.93562502  0.21530877     0.36500
C1822       C  0.73493484  0.84550489  0.36554375     0.36500
N1823       N  0.80891992  0.95263973  0.18308029    -0.43800
N1824       N  0.72050102  0.82688817  0.39525095    -0.43800
C1825       C  0.59030667  0.74284478  0.28945008    -0.00200
C1826       C  0.59998328  0.73365291  0.24815855    -0.12100
C1827       C  0.63036233  0.73392008  0.24642188     0.02000
C1828       C  0.65049394  0.74293772  0.28696233    -0.00300
C1829       C  0.64545847  0.76166803  0.32130699    -0.12000
C1830       C  0.61540383  0.76208890  0.32255915     0.01900
H1831       H  0.58224068  0.72209296  0.21983352     0.14900
H1832       H  0.66260407  0.77204223  0.35050101     0.14900
C1833       C  0.60981123  0.77906161  0.36084675     0.36500
C1834       C  0.63816222  0.72138338  0.20495970     0.36500
N1835       N  0.60544450  0.79265829  0.39161352    -0.43800
N1836       N  0.64433865  0.71134575  0.17166982    -0.43800
loop_ 
_geom_bond_atom_site_label_1 
_geom_bond_atom_site_label_2 
_geom_bond_distance 
_geom_bond_site_symmetry_2 
_ccdc_geom_bond_type 
Zn1           O5   1.975       .  S
Zn1           O6   2.095       .  S
Zn1          O10   2.101       .  S
Zn1          O17   2.063       .  S
Zn2           O5   1.936       .  S
Zn2           O7   1.998       .  S
Zn2           O9   1.921       .  S
Zn2          O13   2.029       .  S
Zn3           O5   1.936       .  S
Zn3           O8   2.024       .  S
Zn3          O11   2.019       .  S
Zn3          O14   1.986       .  S
Zn4           O5   1.974       .  S
Zn4          O12   2.019       .  S
Zn4          O15   2.033       .  S
Zn4          O16   1.965       .  S
O6           C18   1.280       .  A
O7           C19   1.268       .  A
O8           C20   1.273       .  A
O9           C18   1.265       .  A
O10          C20   1.284       .  A
O11          C19   1.271       .  A
O12          C21   1.271       .  A
O13          C22   1.271       .  A
O14          C21   1.275       .  A
O15          C22   1.271       .  A
O16          C23   1.268       .  A
O17          C23   1.283       .  A
C18          C40   1.468       .  S
C19          C46   1.456   1_545  S
C20         C316   1.495       .  S
C21          C32   1.459       .  S
C22         C346   1.471       .  S
C23          C28   1.463       .  S
C24         C448   1.480       .  S
C24          N25   1.352       .  A
C24          N29   1.356       .  A
N25         C944   1.352       .  A
C26         C132   1.464       .  S
C26          N27   1.359       .  A
C26         N943   1.352       .  A
N27          C28   1.366       .  A
C28         N947   1.354       .  A
N29         C946   1.354       .  A
C30         C436   1.482       .  S
C30          N31   1.344       .  A
C30          N35   1.350       .  A
N31         C491   1.351       .  A
C32          N33   1.368       .  A
C32         N490   1.351   1_545  A
N33          C34   1.366   1_545  A
C34         C190   1.470   1_565  S
C34         N494   1.359       .  A
N35         C493   1.359       .  A
C36         C424   1.483       .  S
C36          N37   1.350       .  A
C36         N959   1.349   1_556  A
N37          C38   1.355       .  A
C38         C215   1.453   1_655  S
C38          N39   1.367   1_556  A
N39         C958   1.361       .  A
C40          N41   1.356       .  A
C40         N957   1.361       .  A
N41         C954   1.349   1_554  A
C42         C871   1.478       .  S
C42          N43   1.356       .  A
C42         N506   1.352       .  A
N43          C44   1.354   1_554  A
C44          C88   1.460       .  S
C44         N504   1.364   1_556  A
N45          C46   1.362       .  A
N45         C503   1.364   1_554  A
C46          N47   1.349       .  A
N47         C501   1.352       .  A
Zn48         O52   1.947       .  S
Zn48         O53   2.034       .  S
Zn48         O57   2.111       .  S
Zn48         O64   2.035       .  S
Zn49         O52   1.934       .  S
Zn49         O54   1.999       .  S
Zn49         O56   1.979       .  S
Zn49         O60   2.045       .  S
Zn50         O52   1.982       .  S
Zn50         O55   2.054       .  S
Zn50         O58   2.028       .  S
Zn50         O61   2.033       .  S
Zn51         O52   1.939       .  S
Zn51         O59   1.998       .  S
Zn51         O62   2.046       .  S
Zn51         O63   2.009       .  S
O53          C65   1.276       .  A
O54          C66   1.274       .  A
O55          C67   1.277       .  A
O56          C65   1.273       .  A
O57          C67   1.284       .  A
O58          C66   1.273       .  A
O59          C68   1.273       .  A
O60          C69   1.272       .  A
O61          C68   1.275       .  A
O62          C69   1.273       .  A
O63          C70   1.275       .  A
O64          C70   1.277       .  A
C65          C98   1.452       .  S
C66         C162   1.463       .  S
C67         C322   1.498       .  S
C68         C253   1.462       .  S
C69         C328   1.488       .  S
C70         C218   1.461       .  S
Zn71         O75   1.972       .  S
Zn71         O76   2.087       .  S
Zn71         O80   2.090       .  S
Zn71         O87   2.115       .  S
Zn72         O75   1.948       .  S
Zn72         O77   1.968       .  S
Zn72         O79   1.951       .  S
Zn72         O83   2.053       .  S
Zn73         O75   1.964       .  S
Zn73         O78   2.080       .  S
Zn73         O81   2.035       .  S
Zn73         O84   2.083       .  S
Zn74         O75   1.907       .  S
Zn74         O82   1.957       .  S
Zn74         O85   2.010       .  S
Zn74         O86   1.924       .  S
O76          C88   1.286       .  A
O77          C89   1.270       .  A
O78          C90   1.280       .  A
O79          C88   1.267       .  A
O80          C90   1.280       .  A
O81          C89   1.282       .  A
O82          C91   1.264       .  A
O83          C92   1.270       .  A
O84          C91   1.276       .  A
O85          C92   1.264       .  A
O86          C93   1.267       .  A
O87          C93   1.286       .  A
C89         C110   1.454       .  S
C90         C342   1.507       .  S
C91          C96   1.471       .  S
C92         C336   1.476       .  S
C93         C104   1.471       .  S
C94         C400   1.484       .  S
C94          N95   1.352       .  A
C94          N99   1.348       .  A
N95          C96   1.358       .  A
C96          N97   1.362       .  A
N97          C98   1.366       .  A
C98          N99   1.353       .  A
C100        C391   1.481       .  S
C100        N101   1.351       .  A
C100        N105   1.348   1_545  A
N101        C561   1.354       .  A
C102        C189   1.460       .  S
C102        N103   1.370       .  A
C102        N560   1.354       .  A
N103        C104   1.362       .  A
C104        N564   1.356       .  A
N105        C563   1.356       .  A
C106        C376   1.481       .  S
C106        N107   1.359   1_556  A
C106        N111   1.351       .  A
N107        C108   1.358       .  A
C108        C154   1.464       .  S
C108        N109   1.356   1_554  A
N109        C110   1.360       .  A
C110        N111   1.349       .  A
Zn112       O116   1.942       .  S
Zn112       O117   2.037       .  S
Zn112       O121   2.042       .  S
Zn112       O128   2.111       .  S
Zn113      O1034   1.928       .  S
Zn113       O118   2.042       .  S
Zn113       O120   1.974       .  S
Zn113       O124   1.985       .  S
Zn114      O1034   1.929       .  S
Zn114       O119   1.997       .  S
Zn114       O122   2.049       .  S
Zn114       O125   2.003       .  S
Zn115       O116   1.980       .  S
Zn115       O123   2.031       .  S
Zn115       O126   2.033       .  S
Zn115       O127   2.050       .  S
O116      Zn1031   1.928       .  S
O116      Zn1032   1.929       .  S
O117       C1047   1.277       .  A
O118        C130   1.271       .  A
O119        C131   1.275       .  A
O120        C129   1.272       .  A
O121       C1049   1.277       .  A
O122        C130   1.273       .  A
O123        C132   1.274       .  A
O124       C1051   1.272       .  A
O125       C1050   1.275       .  A
O126        C133   1.274       .  A
O127        C134   1.277       .  A
O128        C134   1.285       .  A
C129       O1035   1.277   1_455  A
C129        C296   1.452       .  S
C130        C332   1.489       .  S
C131       O1039   1.277   1_455  A
C131        C226   1.459       .  S
C132       O1043   1.275       .  A
C133       O1042   1.272       .  A
C133        C166   1.461       .  S
C134        C324   1.495       .  S
Zn135       O139   1.942       .  S
Zn135       O140   2.053       .  S
Zn135       O144   2.003       .  S
Zn135       O151   2.010       .  S
Zn136       O139   1.942       .  S
Zn136       O141   2.000       .  S
Zn136       O143   2.052       .  S
Zn136       O147   2.000       .  S
Zn137       O139   1.985       .  S
Zn137       O142   2.022       .  S
Zn137       O145   2.037       .  S
Zn137       O148   2.077       .  S
Zn138       O139   1.947       .  S
Zn138       O146   2.123       .  S
Zn138       O149   2.036       .  S
Zn138       O150   2.040       .  S
O140        C152   1.273       .  A
O141        C153   1.273       .  A
O142        C154   1.274       .  A
O143        C152   1.273       .  A
O144        C154   1.273       .  A
O145        C153   1.275       .  A
O146        C155   1.285       .  A
O147        C156   1.275       .  A
O148        C155   1.279       .  A
O149        C156   1.278       .  A
O150        C157   1.278       .  A
O151        C157   1.277       .  A
C152        C350   1.493       .  S
C153        C308   1.467       .  S
C155        C318   1.508       .  S
C156        C168   1.455       .  S
C157        C160   1.460       .  S
C158        C439   1.482       .  S
C158        N159   1.356       .  A
C158        N163   1.351       .  A
N159        C160   1.356       .  A
C160        N161   1.364       .  A
N161        C162   1.361       .  A
C162        N163   1.352       .  A
C164        C364   1.484       .  S
C164        N165   1.354       .  A
C164        N169   1.354       .  A
N165       C1084   1.354       .  A
C166        N167   1.359       .  A
C166       N1083   1.354       .  A
N167        C168   1.361       .  A
C168       N1087   1.355       .  A
N169       C1086   1.355       .  A
Zn170       O633   1.961       .  S
Zn170       O175   1.992       .  S
Zn170       O179   1.985       .  S
Zn170       O186   2.089       .  S
Zn171       O174   1.953       .  S
Zn171       O176   2.050       .  S
Zn171       O178   2.022       .  S
Zn171       O182   2.067       .  S
Zn172       O174   1.953       .  S
Zn172       O177   2.045       .  S
Zn172       O180   2.097       .  S
Zn172       O183   2.095       .  S
Zn173       O633   1.911       .  S
Zn173       O181   1.945       .  S
Zn173       O184   1.958       .  S
Zn173       O185   2.006       .  S
O174       Zn629   1.961   1_545  S
O174       Zn632   1.911   1_545  S
O175        C187   1.273       .  A
O176        C188   1.276       .  A
O177        C648   1.285       .  A
O178        C646   1.282       .  A
O179        C189   1.272       .  A
O180        C188   1.282       .  A
O181        C649   1.268       .  A
O182        C191   1.273       .  A
O183        C190   1.282       .  A
O184        C650   1.264       .  A
O185        C192   1.265       .  A
O186        C192   1.276       .  A
C187        O637   1.282       .  A
C187        C302   1.457       .  S
C188        C326   1.501       .  S
C189        O636   1.285       .  A
C190        O640   1.268   1_545  A
C191        O643   1.264   1_545  A
C191        C261   1.468   1_545  S
C192        C330   1.484       .  S
Zn193       O197   1.930       .  S
Zn193       O198   2.039       .  S
Zn193       O202   2.013       .  S
Zn193       O209   1.989       .  S
Zn194       O197   1.927       .  S
Zn194       O199   2.003       .  S
Zn194       O201   2.048       .  S
Zn194       O205   1.990       .  S
Zn195       O197   1.976       .  S
Zn195       O200   2.029       .  S
Zn195       O203   2.011       .  S
Zn195       O206   2.008       .  S
Zn196       O197   1.955       .  S
Zn196       O204   2.105       .  S
Zn196       O207   2.034       .  S
Zn196       O208   2.032       .  S
O198        C210   1.272       .  A
O199        C211   1.275       .  A
O200        C212   1.273       .  A
O201        C210   1.273       .  A
O202        C212   1.275       .  A
O203        C211   1.269       .  A
O204        C213   1.283       .  A
O205        C214   1.275       .  A
O206        C213   1.272       .  A
O207        C214   1.275       .  A
O208        C215   1.276       .  A
O209        C215   1.275       .  A
C210        C338   1.486       .  S
C211        C220   1.456       .  S
C212        C224   1.467       .  S
C213        C344   1.484       .  S
C214        C267   1.456       .  S
C216        C355   1.481       .  S
C216        N217   1.359       .  A
C216        N221   1.347       .  A
N217        C218   1.359       .  A
C218        N219   1.366       .  A
N219        C220   1.359       .  A
C220        N221   1.345       .  A
C222        C388   1.482       .  S
C222        N223   1.355       .  A
C222        N227   1.351       .  A
N223       C1142   1.356       .  A
C224        N225   1.363       .  A
C224       N1141   1.356       .  A
N225        C226   1.364       .  A
C226       N1145   1.352       .  A
N227       C1144   1.352       .  A
Zn228       O232   1.975       .  S
Zn228       O233   2.091       .  S
Zn228       O237   2.091       .  S
Zn228       O244   2.049       .  S
Zn229       O232   1.932       .  S
Zn229       O234   2.007       .  S
Zn229       O236   2.029       .  S
Zn229       O240   1.988       .  S
Zn230       O232   1.934       .  S
Zn230       O235   1.925       .  S
Zn230       O238   1.994       .  S
Zn230       O241   2.030       .  S
Zn231       O232   1.976       .  S
Zn231       O239   2.039       .  S
Zn231       O242   2.021       .  S
Zn231       O243   1.960       .  S
O233        C245   1.283       .  A
O234        C246   1.271       .  A
O235        C247   1.265       .  A
O236        C245   1.273       .  A
O237        C247   1.279       .  A
O238        C246   1.268       .  A
O239        C248   1.271       .  A
O240        C249   1.275       .  A
O241        C248   1.271       .  A
O242        C249   1.271       .  A
O243        C250   1.268       .  A
O244        C250   1.282       .  A
C245        C320   1.493       .  S
C246        C314   1.451   1_545  S
C247        C265   1.468       .  S
C248        C348   1.473       .  S
C249        C259   1.458       .  S
C250        C255   1.458       .  S
C251        C451   1.480       .  S
C251        N252   1.356       .  A
C251        N256   1.353       .  A
N252        C253   1.355       .  A
C253        N254   1.357       .  A
N254        C255   1.362       .  A
C255        N256   1.351       .  A
C257        C367   1.482       .  S
C257        N258   1.346       .  A
C257        N262   1.351       .  A
N258        C718   1.351       .  A
C259        N260   1.366       .  A
C259        N717   1.351   1_545  A
N260        C261   1.365   1_545  A
C261        N721   1.360       .  A
N262        C720   1.360       .  A
C263        C379   1.482       .  S
C263        N264   1.346   1_556  A
C263        N268   1.351       .  A
N264        C265   1.354       .  A
C265        N266   1.363       .  A
N266        C267   1.369   1_554  A
C267        N268   1.356       .  A
Zn269       O273   1.920       .  S
Zn269       O274   1.995       .  S
Zn269       O278   1.932       .  S
Zn269       O285   2.067       .  S
Zn270       O273   1.947       .  S
Zn270       O275   2.032       .  S
Zn270       O277   2.005       .  S
Zn270       O281   1.986       .  S
Zn271       O273   1.987       .  S
Zn271       O276   2.094       .  S
Zn271       O279   2.057       .  S
Zn271       O282   2.057       .  S
Zn272       O273   1.971       .  S
Zn272       O280   1.984       .  S
Zn272       O283   2.042       .  S
Zn272       O284   2.067       .  S
O274        C286   1.271       .  A
O275        C287   1.272       .  A
O276        C288   1.282       .  A
O277        C286   1.271       .  A
O278        C288   1.267       .  A
O279        C287   1.274       .  A
O280        C289   1.270       .  A
O281        C290   1.272       .  A
O282        C289   1.281       .  A
O283        C290   1.276       .  A
O284        C291   1.276       .  A
O285        C291   1.276       .  A
C286        C306   1.450   1_455  S
C287        C334   1.487       .  S
C288        C312   1.467       .  S
C289        C300   1.465       .  S
C290        C294   1.460       .  S
C291        C340   1.492       .  S
C292        C403   1.484       .  S
C292        N293   1.353       .  A
C292        N297   1.354       .  A
N293       C1212   1.355       .  A
C294        N295   1.358       .  A
C294       N1211   1.355       .  A
N295        C296   1.361       .  A
C296       N1215   1.354       .  A
N297       C1214   1.354       .  A
C298        C352   1.481       .  S
C298        N299   1.361       .  A
C298        N303   1.347       .  A
N299        C759   1.360   1_545  A
C300        N301   1.362       .  A
C300        N758   1.360       .  A
N301        C302   1.361       .  A
C302        N762   1.346       .  A
N303        C761   1.346       .  A
C304        C427   1.485       .  S
C304        N309   1.356   1_556  A
C304       N1223   1.355       .  A
N305        C306   1.352       .  A
N305       C1222   1.355       .  A
C306       N1225   1.362       .  A
N307        C308   1.357   1_556  A
N307       C1224   1.362       .  A
C308        N309   1.356       .  A
C310        C415   1.480       .  S
C310        N315   1.349       .  A
C310        N770   1.350       .  A
N311        C312   1.354   1_554  A
N311        C769   1.350       .  A
C312        N772   1.363   1_556  A
N313        C314   1.368       .  A
N313        C771   1.363   1_554  A
C314        N315   1.353       .  A
C316        N776   1.372   1_545  A
C316       N1239   1.362       .  A
N317        C318   1.368       .  A
N317        C775   1.372       .  A
C318       N1237   1.367       .  A
N319       C1236   1.367   1_455  A
N319        C779   1.371       .  A
C320        N321   1.362       .  A
C320        N778   1.371   1_545  A
N321       C1234   1.362   1_455  A
C322        N323   1.368       .  A
C322        N327   1.366       .  A
N323        C324   1.368       .  A
C324        N325   1.367       .  A
N325        C326   1.367       .  A
C326        N327   1.368       .  A
C328        N329   1.365       .  A
C328        N333   1.363       .  A
N329        C330   1.364       .  A
C330        N331   1.365       .  A
N331        C332   1.365       .  A
C332        N333   1.362       .  A
C334       N1253   1.362   1_455  A
C334        N798   1.364       .  A
N335        C336   1.361       .  A
N335       C1252   1.362       .  A
C336        N796   1.360       .  A
N337        C795   1.360   1_545  A
N337       C1256   1.364       .  A
C338        N339   1.366       .  A
C338       N1255   1.364   1_455  A
N339        C793   1.364   1_545  A
C340        N341   1.370       .  A
C340        N345   1.361       .  A
N341        C342   1.371       .  A
C342        N343   1.368       .  A
N343        C344   1.367       .  A
C344        N345   1.361       .  A
C346        N347   1.356       .  A
C346        N351   1.364       .  A
N347        C348   1.356       .  A
C348        N349   1.365       .  A
N349        C350   1.367       .  A
C350        N351   1.366       .  A
C352        C353   1.401       .  A
C352        C357   1.420       .  A
C353        C354   1.393       .  A
C353        H358   1.083       .  S
C354        C355   1.417       .  A
C354        C361   1.445       .  S
C355        C356   1.401       .  A
C356        C357   1.395       .  A
C356        H359   1.084       .  S
C357        C360   1.445       .  S
C360        N362   1.158       .  T
C361        N363   1.157       .  T
C364        C365   1.408       .  A
C364        C369   1.414       .  A
C365        C366   1.397       .  A
C365        H370   1.084       .  S
C366        C367   1.409       .  A
C366        C373   1.443       .  S
C367        C368   1.406       .  A
C368        C369   1.394       .  A
C368        H371   1.084       .  S
C369        C372   1.444       .  S
C372        N374   1.157       .  T
C373        N375   1.157       .  T
C376        C377   1.402       .  A
C376        C381   1.416       .  A
C377        C378   1.394       .  A
C377        H382   1.082   1_556  S
C378        C379   1.415       .  A
C378        C385   1.444   1_556  S
C379        C380   1.404       .  A
C380        C381   1.396       .  A
C380        H383   1.084       .  S
C381        C384   1.445       .  S
C384        N386   1.157       .  T
C385        N387   1.157       .  T
C388        C389   1.404       .  A
C388        C393   1.414       .  A
C389        C390   1.394       .  A
C389        H394   1.082       .  S
C390        C391   1.413       .  A
C390        C397   1.444       .  S
C391        C392   1.404       .  A
C392        C393   1.395       .  A
C392        H395   1.085       .  S
C393        C396   1.444       .  S
C396        N398   1.157       .  T
C397        N399   1.157   1_545  T
C400        C401   1.406       .  A
C400        C405   1.416       .  A
C401        C402   1.396       .  A
C401        H406   1.084       .  S
C402        C403   1.413       .  A
C402        C409   1.445       .  S
C403        C404   1.405       .  A
C404        C405   1.397       .  A
C404        H407   1.085       .  S
C405        C408   1.445       .  S
C408        N410   1.158       .  T
C409        N411   1.157       .  T
C412        C501   1.478       .  S
C412        C413   1.406       .  A
C412        C876   1.412       .  A
C413        C414   1.394       .  A
C413        H418   1.084       .  S
C414        C415   1.412       .  A
C414        C421   1.444       .  S
C415        C875   1.407       .  A
C416        C417   1.395       .  A
C416        C874   1.407       .  A
C416        H419   1.085       .  S
C417        C871   1.412       .  A
C417        C420   1.445   1_554  S
C420        N422   1.157       .  T
C421        N423   1.157       .  T
C424        C429   1.411       .  A
C424       C1343   1.406       .  A
C425        C426   1.395       .  A
C425       C1342   1.406       .  A
C425        H430   1.085   1_556  S
C426        C427   1.414       .  A
C426        C433   1.445   1_556  S
C427       C1346   1.408       .  A
C428        C429   1.397       .  A
C428       C1345   1.408       .  A
C428        H431   1.085       .  S
C429        C432   1.445       .  S
C432        N434   1.158       .  T
C433        N435   1.157       .  T
C436        C437   1.403       .  A
C436        C441   1.416       .  A
C437        C438   1.395       .  A
C437        H442   1.083       .  S
C438        C439   1.416       .  A
C438        C445   1.445       .  S
C439        C440   1.404       .  A
C440        C441   1.395       .  A
C440        H443   1.084       .  S
C441        C444   1.445       .  S
C444        N446   1.157       .  T
C445        N447   1.157       .  T
C448        C449   1.404       .  A
C448        C453   1.415       .  A
C449        C450   1.394       .  A
C449        H454   1.085       .  S
C450        C451   1.414       .  A
C450        C457   1.445       .  S
C451        C452   1.405       .  A
C452        C453   1.395       .  A
C452        H455   1.084       .  S
C453        C456   1.445       .  S
C456        N458   1.157       .  T
C457        N459   1.157       .  T
Zn460       O464   1.975       .  S
Zn460       O465   2.095       .  S
Zn460       O469   2.101       .  S
Zn460       O476   2.063       .  S
Zn461       O464   1.936       .  S
Zn461       O466   1.998       .  S
Zn461       O468   1.921       .  S
Zn461       O472   2.029       .  S
Zn462       O464   1.936       .  S
Zn462       O467   2.024       .  S
Zn462       O470   2.019       .  S
Zn462       O473   1.986       .  S
Zn463       O464   1.974       .  S
Zn463       O471   2.019       .  S
Zn463       O474   2.033       .  S
Zn463       O475   1.965       .  S
O465        C477   1.280       .  A
O466        C478   1.268       .  A
O467        C479   1.273       .  A
O468        C477   1.265       .  A
O469        C479   1.284       .  A
O470        C478   1.271       .  A
O471        C480   1.271       .  A
O472        C481   1.271       .  A
O473        C480   1.275       .  A
O474        C481   1.271       .  A
O475        C482   1.268       .  A
O476        C482   1.283       .  A
C477        C499   1.468       .  S
C478        C505   1.456       .  S
C479        C775   1.495       .  S
C480        C491   1.459       .  S
C481        C805   1.471       .  S
C482        C487   1.463       .  S
C483        C907   1.480       .  S
C483        N484   1.352       .  A
C483        N488   1.356       .  A
N484       C1403   1.352       .  A
C485        C591   1.464       .  S
C485       N1402   1.352       .  A
C485        N486   1.359       .  A
N486        C487   1.366       .  A
C487       N1406   1.354       .  A
N488       C1405   1.354       .  A
C489        C895   1.482       .  S
C489        N490   1.344       .  A
C489        N494   1.350       .  A
C491        N492   1.368       .  A
N492        C493   1.366       .  A
C493        C649   1.470       .  S
C495        C883   1.483       .  S
C495        N496   1.350       .  A
C495       N1418   1.349   1_556  A
N496        C497   1.355       .  A
C497        C674   1.453   1_655  S
C497        N498   1.367   1_556  A
N498       C1417   1.361       .  A
C499       N1416   1.361       .  A
C499        N500   1.356       .  A
N500       C1413   1.349   1_554  A
C501        N502   1.356       .  A
N502        C503   1.354   1_554  A
C503        C547   1.460       .  S
N504        C505   1.362       .  A
C505        N506   1.349       .  A
Zn507       O511   1.947       .  S
Zn507       O512   2.034       .  S
Zn507       O516   2.111       .  S
Zn507       O523   2.035       .  S
Zn508       O511   1.934       .  S
Zn508       O513   1.999       .  S
Zn508       O515   1.979       .  S
Zn508       O519   2.045       .  S
Zn509       O511   1.982       .  S
Zn509       O514   2.054       .  S
Zn509       O517   2.028       .  S
Zn509       O520   2.033       .  S
Zn510       O511   1.939       .  S
Zn510       O518   1.998       .  S
Zn510       O521   2.046       .  S
Zn510       O522   2.009       .  S
O512        C524   1.276       .  A
O513        C525   1.274       .  A
O514        C526   1.277       .  A
O515        C524   1.273       .  A
O516        C526   1.284       .  A
O517        C525   1.273       .  A
O518        C527   1.273       .  A
O519        C528   1.272       .  A
O520        C527   1.275       .  A
O521        C528   1.273       .  A
O522        C529   1.275       .  A
O523        C529   1.277       .  A
C524        C557   1.452       .  S
C525        C621   1.463       .  S
C526        C781   1.498       .  S
C527        C712   1.462       .  S
C528        C787   1.488       .  S
C529        C677   1.461       .  S
Zn530       O534   1.972       .  S
Zn530       O535   2.087       .  S
Zn530       O539   2.090       .  S
Zn530       O546   2.115       .  S
Zn531       O534   1.948       .  S
Zn531       O536   1.968       .  S
Zn531       O538   1.951       .  S
Zn531       O542   2.053       .  S
Zn532       O534   1.964       .  S
Zn532       O537   2.080       .  S
Zn532       O540   2.035       .  S
Zn532       O543   2.083       .  S
Zn533       O534   1.907       .  S
Zn533       O541   1.957       .  S
Zn533       O544   2.010       .  S
Zn533       O545   1.924       .  S
O535        C547   1.286       .  A
O536        C548   1.270       .  A
O537        C549   1.280       .  A
O538        C547   1.267       .  A
O539        C549   1.280       .  A
O540        C548   1.282       .  A
O541        C550   1.264       .  A
O542        C551   1.270       .  A
O543        C550   1.276       .  A
O544        C551   1.264       .  A
O545        C552   1.267       .  A
O546        C552   1.286       .  A
C548        C569   1.454       .  S
C549        C801   1.507       .  S
C550        C555   1.471       .  S
C551        C795   1.476       .  S
C552        C563   1.471       .  S
C553        C859   1.484       .  S
C553        N554   1.352       .  A
C553        N558   1.348       .  A
N554        C555   1.358       .  A
C555        N556   1.362       .  A
N556        C557   1.366       .  A
C557        N558   1.353       .  A
C559        C850   1.481       .  S
C559        N560   1.351       .  A
C559        N564   1.348       .  A
C561        C648   1.460       .  S
C561        N562   1.370   1_545  A
N562        C563   1.362       .  A
C565        C835   1.481       .  S
C565        N566   1.359   1_556  A
C565        N570   1.351       .  A
N566        C567   1.358       .  A
C567        C613   1.464       .  S
C567        N568   1.356   1_554  A
N568        C569   1.360       .  A
C569        N570   1.349       .  A
Zn571       O575   1.942       .  S
Zn571       O576   2.037       .  S
Zn571       O580   2.042       .  S
Zn571       O587   2.111       .  S
Zn572      O1493   1.928       .  S
Zn572       O577   2.042       .  S
Zn572       O579   1.974       .  S
Zn572       O583   1.985       .  S
Zn573      O1493   1.929       .  S
Zn573       O578   1.997       .  S
Zn573       O581   2.049       .  S
Zn573       O584   2.003       .  S
Zn574       O575   1.980       .  S
Zn574       O582   2.031       .  S
Zn574       O585   2.033       .  S
Zn574       O586   2.050       .  S
O575      Zn1490   1.928       .  S
O575      Zn1491   1.929       .  S
O576       C1506   1.277       .  A
O577        C589   1.271       .  A
O578        C590   1.275       .  A
O579        C588   1.272       .  A
O580       C1508   1.277       .  A
O581        C589   1.273       .  A
O582        C591   1.274       .  A
O583       C1510   1.272       .  A
O584       C1509   1.275       .  A
O585        C592   1.274       .  A
O586        C593   1.277       .  A
O587        C593   1.285       .  A
C588       O1494   1.277   1_455  A
C588        C755   1.452       .  S
C589        C791   1.489       .  S
C590       O1498   1.277   1_455  A
C590        C685   1.459       .  S
C591       O1502   1.275       .  A
C592       O1501   1.272       .  A
C592        C625   1.461       .  S
C593        C783   1.495       .  S
Zn594       O598   1.942       .  S
Zn594       O599   2.053       .  S
Zn594       O603   2.003       .  S
Zn594       O610   2.010       .  S
Zn595       O598   1.942       .  S
Zn595       O600   2.000       .  S
Zn595       O602   2.052       .  S
Zn595       O606   2.000       .  S
Zn596       O598   1.985       .  S
Zn596       O601   2.022       .  S
Zn596       O604   2.037       .  S
Zn596       O607   2.077       .  S
Zn597       O598   1.947       .  S
Zn597       O605   2.123       .  S
Zn597       O608   2.036       .  S
Zn597       O609   2.040       .  S
O599        C611   1.273       .  A
O600        C612   1.273       .  A
O601        C613   1.274       .  A
O602        C611   1.273       .  A
O603        C613   1.273       .  A
O604        C612   1.275       .  A
O605        C614   1.285       .  A
O606        C615   1.275       .  A
O607        C614   1.279       .  A
O608        C615   1.278       .  A
O609        C616   1.278       .  A
O610        C616   1.277       .  A
C611        C809   1.493       .  S
C612        C767   1.467       .  S
C614        C777   1.508       .  S
C615        C627   1.455       .  S
C616        C619   1.460       .  S
C617        C898   1.482       .  S
C617        N618   1.356       .  A
C617        N622   1.351       .  A
N618        C619   1.356       .  A
C619        N620   1.364       .  A
N620        C621   1.361       .  A
C621        N622   1.352       .  A
C623        C823   1.484       .  S
C623        N624   1.354       .  A
C623        N628   1.354       .  A
N624       C1543   1.354       .  A
C625       N1542   1.354       .  A
C625        N626   1.359       .  A
N626        C627   1.361       .  A
C627       N1546   1.355       .  A
N628       C1545   1.355       .  A
Zn629       O634   1.992       .  S
Zn629       O638   1.985       .  S
Zn629       O645   2.089       .  S
Zn630       O633   1.953       .  S
Zn630       O635   2.050       .  S
Zn630       O637   2.022       .  S
Zn630       O641   2.067       .  S
Zn631       O633   1.953       .  S
Zn631       O636   2.045       .  S
Zn631       O639   2.097       .  S
Zn631       O642   2.095       .  S
Zn632       O640   1.945       .  S
Zn632       O643   1.958       .  S
Zn632       O644   2.006       .  S
O634        C646   1.273   1_565  A
O635        C647   1.276       .  A
O638        C648   1.272   1_565  A
O639        C647   1.282       .  A
O641        C650   1.273       .  A
O642        C649   1.282       .  A
O644        C651   1.265       .  A
O645        C651   1.276       .  A
C646        C761   1.457       .  S
C647        C785   1.501       .  S
C650        C720   1.468       .  S
C651        C789   1.484       .  S
Zn652       O656   1.930       .  S
Zn652       O657   2.039       .  S
Zn652       O661   2.013       .  S
Zn652       O668   1.989       .  S
Zn653       O656   1.927       .  S
Zn653       O658   2.003       .  S
Zn653       O660   2.048       .  S
Zn653       O664   1.990       .  S
Zn654       O656   1.976       .  S
Zn654       O659   2.029       .  S
Zn654       O662   2.011       .  S
Zn654       O665   2.008       .  S
Zn655       O656   1.955       .  S
Zn655       O663   2.105       .  S
Zn655       O666   2.034       .  S
Zn655       O667   2.032       .  S
O657        C669   1.272       .  A
O658        C670   1.275       .  A
O659        C671   1.273       .  A
O660        C669   1.273       .  A
O661        C671   1.275       .  A
O662        C670   1.269       .  A
O663        C672   1.283       .  A
O664        C673   1.275       .  A
O665        C672   1.272       .  A
O666        C673   1.275       .  A
O667        C674   1.276       .  A
O668        C674   1.275       .  A
C669        C797   1.486       .  S
C670        C679   1.456       .  S
C671        C683   1.467       .  S
C672        C803   1.484       .  S
C673        C726   1.456       .  S
C675        C814   1.481       .  S
C675        N676   1.359       .  A
C675        N680   1.347       .  A
N676        C677   1.359       .  A
C677        N678   1.366       .  A
N678        C679   1.359       .  A
C679        N680   1.345       .  A
C681        C847   1.482       .  S
C681        N682   1.355       .  A
C681        N686   1.351       .  A
N682       C1601   1.356       .  A
C683       N1600   1.356       .  A
C683        N684   1.363       .  A
N684        C685   1.364       .  A
C685       N1604   1.352       .  A
N686       C1603   1.352       .  A
Zn687       O691   1.975       .  S
Zn687       O692   2.091       .  S
Zn687       O696   2.091       .  S
Zn687       O703   2.049       .  S
Zn688       O691   1.932       .  S
Zn688       O693   2.007       .  S
Zn688       O695   2.029       .  S
Zn688       O699   1.988       .  S
Zn689       O691   1.934       .  S
Zn689       O694   1.925       .  S
Zn689       O697   1.994       .  S
Zn689       O700   2.030       .  S
Zn690       O691   1.976       .  S
Zn690       O698   2.039       .  S
Zn690       O701   2.021       .  S
Zn690       O702   1.960       .  S
O692        C704   1.283       .  A
O693        C705   1.271       .  A
O694        C706   1.265       .  A
O695        C704   1.273       .  A
O696        C706   1.279       .  A
O697        C705   1.268       .  A
O698        C707   1.271       .  A
O699        C708   1.275       .  A
O700        C707   1.271       .  A
O701        C708   1.271       .  A
O702        C709   1.268       .  A
O703        C709   1.282       .  A
C704        C779   1.493       .  S
C705        C773   1.451       .  S
C706        C724   1.468       .  S
C707        C807   1.473       .  S
C708        C718   1.458       .  S
C709        C714   1.458       .  S
C710        C910   1.480       .  S
C710        N711   1.356       .  A
C710        N715   1.353       .  A
N711        C712   1.355       .  A
C712        N713   1.357       .  A
N713        C714   1.362       .  A
C714        N715   1.351       .  A
C716        C826   1.482       .  S
C716        N717   1.346       .  A
C716        N721   1.351       .  A
C718        N719   1.366       .  A
N719        C720   1.365       .  A
C722        C838   1.482       .  S
C722        N723   1.346   1_556  A
C722        N727   1.351       .  A
N723        C724   1.354       .  A
C724        N725   1.363       .  A
N725        C726   1.369   1_554  A
C726        N727   1.356       .  A
Zn728       O732   1.920       .  S
Zn728       O733   1.995       .  S
Zn728       O737   1.932       .  S
Zn728       O744   2.067       .  S
Zn729       O732   1.947       .  S
Zn729       O734   2.032       .  S
Zn729       O736   2.005       .  S
Zn729       O740   1.986       .  S
Zn730       O732   1.987       .  S
Zn730       O735   2.094       .  S
Zn730       O738   2.057       .  S
Zn730       O741   2.057       .  S
Zn731       O732   1.971       .  S
Zn731       O739   1.984       .  S
Zn731       O742   2.042       .  S
Zn731       O743   2.067       .  S
O733        C745   1.271       .  A
O734        C746   1.272       .  A
O735        C747   1.282       .  A
O736        C745   1.271       .  A
O737        C747   1.267       .  A
O738        C746   1.274       .  A
O739        C748   1.270       .  A
O740        C749   1.272       .  A
O741        C748   1.281       .  A
O742        C749   1.276       .  A
O743        C750   1.276       .  A
O744        C750   1.276       .  A
C745        C765   1.450   1_455  S
C746        C793   1.487       .  S
C747        C771   1.467       .  S
C748        C759   1.465       .  S
C749        C753   1.460       .  S
C750        C799   1.492       .  S
C751        C862   1.484       .  S
C751        N752   1.353       .  A
C751        N756   1.354       .  A
N752       C1671   1.355       .  A
C753       N1670   1.355       .  A
C753        N754   1.358       .  A
N754        C755   1.361       .  A
C755       N1674   1.354       .  A
N756       C1673   1.354       .  A
C757        C811   1.481       .  S
C757        N758   1.361       .  A
C757        N762   1.347       .  A
C759        N760   1.362       .  A
N760        C761   1.361   1_565  A
C763        C886   1.485       .  S
C763       N1682   1.355       .  A
C763        N768   1.356   1_556  A
N764       C1681   1.355       .  A
N764        C765   1.352       .  A
C765       N1684   1.362       .  A
N766       C1683   1.362       .  A
N766        C767   1.357   1_556  A
C767        N768   1.356       .  A
C769        C874   1.480       .  S
C769        N774   1.349       .  A
N770        C771   1.354   1_554  A
N772        C773   1.368       .  A
C773        N774   1.353       .  A
C775       N1698   1.362       .  A
N776        C777   1.368       .  A
C777       N1696   1.367       .  A
N778       C1695   1.367   1_455  A
C779        N780   1.362       .  A
N780       C1693   1.362   1_455  A
C781        N782   1.368       .  A
C781        N786   1.366       .  A
N782        C783   1.368       .  A
C783        N784   1.367       .  A
N784        C785   1.367       .  A
C785        N786   1.368       .  A
C787        N788   1.365       .  A
C787        N792   1.363       .  A
N788        C789   1.364       .  A
C789        N790   1.365       .  A
N790        C791   1.365       .  A
C791        N792   1.362       .  A
C793       N1712   1.362   1_455  A
N794       C1711   1.362       .  A
N794        C795   1.361       .  A
N796       C1715   1.364       .  A
C797       N1714   1.364   1_455  A
C797        N798   1.366       .  A
C799        N800   1.370       .  A
C799        N804   1.361       .  A
N800        C801   1.371       .  A
C801        N802   1.368       .  A
N802        C803   1.367       .  A
C803        N804   1.361       .  A
C805        N806   1.356       .  A
C805        N810   1.364       .  A
N806        C807   1.356       .  A
C807        N808   1.365       .  A
N808        C809   1.367       .  A
C809        N810   1.366       .  A
C811        C812   1.401       .  A
C811        C816   1.420       .  A
C812        C813   1.393       .  A
C812        H817   1.083       .  S
C813        C814   1.417       .  A
C813        C820   1.445       .  S
C814        C815   1.401       .  A
C815        C816   1.395       .  A
C815        H818   1.084       .  S
C816        C819   1.445       .  S
C819        N821   1.158       .  T
C820        N822   1.157       .  T
C823        C824   1.408       .  A
C823        C828   1.414       .  A
C824        C825   1.397       .  A
C824        H829   1.084       .  S
C825        C826   1.409       .  A
C825        C832   1.443       .  S
C826        C827   1.406       .  A
C827        C828   1.394       .  A
C827        H830   1.084       .  S
C828        C831   1.444       .  S
C831        N833   1.157       .  T
C832        N834   1.157       .  T
C835        C836   1.402       .  A
C835        C840   1.416       .  A
C836        C837   1.394       .  A
C836        H841   1.082   1_556  S
C837        C838   1.415       .  A
C837        C844   1.444   1_556  S
C838        C839   1.404       .  A
C839        C840   1.396       .  A
C839        H842   1.084       .  S
C840        C843   1.445       .  S
C843        N845   1.157       .  T
C844        N846   1.157       .  T
C847        C848   1.404       .  A
C847        C852   1.414       .  A
C848        C849   1.394       .  A
C848        H853   1.082       .  S
C849        C850   1.413       .  A
C849        C856   1.444       .  S
C850        C851   1.404       .  A
C851        C852   1.395       .  A
C851        H854   1.085       .  S
C852        C855   1.444       .  S
C855        N857   1.157       .  T
C856        N858   1.157       .  T
C859        C860   1.406       .  A
C859        C864   1.416       .  A
C860        C861   1.396       .  A
C860        H865   1.084       .  S
C861        C862   1.413       .  A
C861        C868   1.445       .  S
C862        C863   1.405       .  A
C863        C864   1.397       .  A
C863        H866   1.085       .  S
C864        C867   1.445       .  S
C867        N869   1.158       .  T
C868        N870   1.157       .  T
C871        C872   1.406       .  A
C872        C873   1.394       .  A
C872        H877   1.084       .  S
C873        C874   1.412       .  A
C873        C880   1.444       .  S
C875        C876   1.395       .  A
C875        H878   1.085       .  S
C876        C879   1.445   1_554  S
C879        N881   1.157       .  T
C880        N882   1.157       .  T
C883       C1802   1.406       .  A
C883        C888   1.411       .  A
C884       C1801   1.406       .  A
C884        C885   1.395       .  A
C884        H889   1.085   1_556  S
C885        C886   1.414       .  A
C885        C892   1.445   1_556  S
C886       C1805   1.408       .  A
C887       C1804   1.408       .  A
C887        C888   1.397       .  A
C887        H890   1.085       .  S
C888        C891   1.445       .  S
C891        N893   1.158       .  T
C892        N894   1.157       .  T
C895        C896   1.403       .  A
C895        C900   1.416       .  A
C896        C897   1.395       .  A
C896        H901   1.083       .  S
C897        C898   1.416       .  A
C897        C904   1.445       .  S
C898        C899   1.404       .  A
C899        C900   1.395       .  A
C899        H902   1.084       .  S
C900        C903   1.445       .  S
C903        N905   1.157       .  T
C904        N906   1.157       .  T
C907        C908   1.404       .  A
C907        C912   1.415       .  A
C908        C909   1.394       .  A
C908        H913   1.085       .  S
C909        C910   1.414       .  A
C909        C916   1.445       .  S
C910        C911   1.405       .  A
C911        C912   1.395       .  A
C911        H914   1.084       .  S
C912        C915   1.445       .  S
C915        N917   1.157       .  T
C916        N918   1.157       .  T
Zn919       O923   1.975       .  S
Zn919       O924   2.095       .  S
Zn919       O928   2.101       .  S
Zn919       O935   2.063       .  S
Zn920       O923   1.936       .  S
Zn920       O925   1.998       .  S
Zn920       O927   1.921       .  S
Zn920       O931   2.029       .  S
Zn921       O923   1.936       .  S
Zn921       O926   2.024       .  S
Zn921       O929   2.019       .  S
Zn921       O932   1.986       .  S
Zn922       O923   1.974       .  S
Zn922       O930   2.019       .  S
Zn922       O933   2.033       .  S
Zn922       O934   1.965       .  S
O924        C936   1.280       .  A
O925        C937   1.268       .  A
O926        C938   1.273       .  A
O927        C936   1.265       .  A
O928        C938   1.284       .  A
O929        C937   1.271       .  A
O930        C939   1.271       .  A
O931        C940   1.271       .  A
O932        C939   1.275       .  A
O933        C940   1.271       .  A
O934        C941   1.268       .  A
O935        C941   1.283       .  A
C936        C958   1.468       .  S
C937        C964   1.456   1_545  S
C938       C1234   1.495       .  S
C939        C950   1.459       .  S
C940       C1264   1.471       .  S
C941        C946   1.463   1_655  S
C942       C1366   1.480       .  S
C942        N943   1.352       .  A
C942        N947   1.356       .  A
C944       C1050   1.464       .  S
C944        N945   1.359   1_455  A
N945        C946   1.366   1_655  A
C948       C1354   1.482       .  S
C948        N949   1.344       .  A
C948        N953   1.350       .  A
N949       C1409   1.351       .  A
C950       N1408   1.351   1_545  A
C950        N951   1.368       .  A
N951        C952   1.366   1_545  A
C952       C1108   1.470   1_565  S
C952       N1412   1.359       .  A
N953       C1411   1.359       .  A
C954       C1342   1.483       .  S
C954        N955   1.350       .  A
N955        C956   1.355       .  A
C956       C1133   1.453       .  S
C956        N957   1.367   1_556  A
C958        N959   1.356       .  A
C960       C1789   1.478       .  S
C960        N961   1.356       .  A
C960       N1424   1.352       .  A
N961        C962   1.354   1_554  A
C962       C1006   1.460       .  S
C962       N1422   1.364   1_556  A
N963       C1421   1.364   1_554  A
N963        C964   1.362       .  A
C964        N965   1.349       .  A
N965       C1419   1.352       .  A
Zn966       O970   1.947       .  S
Zn966       O971   2.034       .  S
Zn966       O975   2.111       .  S
Zn966       O982   2.035       .  S
Zn967       O970   1.934       .  S
Zn967       O972   1.999       .  S
Zn967       O974   1.979       .  S
Zn967       O978   2.045       .  S
Zn968       O970   1.982       .  S
Zn968       O973   2.054       .  S
Zn968       O976   2.028       .  S
Zn968       O979   2.033       .  S
Zn969       O970   1.939       .  S
Zn969       O977   1.998       .  S
Zn969       O980   2.046       .  S
Zn969       O981   2.009       .  S
O971        C983   1.276       .  A
O972        C984   1.274       .  A
O973        C985   1.277       .  A
O974        C983   1.273       .  A
O975        C985   1.284       .  A
O976        C984   1.273       .  A
O977        C986   1.273       .  A
O978        C987   1.272       .  A
O979        C986   1.275       .  A
O980        C987   1.273       .  A
O981        C988   1.275       .  A
O982        C988   1.277       .  A
C983       C1016   1.452       .  S
C984       C1080   1.463       .  S
C985       C1240   1.498       .  S
C986       C1171   1.462       .  S
C987       C1246   1.488       .  S
C988       C1136   1.461       .  S
Zn989       O993   1.972       .  S
Zn989       O994   2.087       .  S
Zn989       O998   2.090       .  S
Zn989      O1005   2.115       .  S
Zn990       O993   1.948       .  S
Zn990       O995   1.968       .  S
Zn990       O997   1.951       .  S
Zn990      O1001   2.053       .  S
Zn991       O993   1.964       .  S
Zn991       O996   2.080       .  S
Zn991       O999   2.035       .  S
Zn991      O1002   2.083       .  S
Zn992       O993   1.907       .  S
Zn992      O1000   1.957       .  S
Zn992      O1003   2.010       .  S
Zn992      O1004   1.924       .  S
O994       C1006   1.286       .  A
O995       C1007   1.270       .  A
O996       C1008   1.280       .  A
O997       C1006   1.267       .  A
O998       C1008   1.280       .  A
O999       C1007   1.282       .  A
O1000      C1009   1.264       .  A
O1001      C1010   1.270       .  A
O1002      C1009   1.276       .  A
O1003      C1010   1.264       .  A
O1004      C1011   1.267       .  A
O1005      C1011   1.286       .  A
C1007      C1028   1.454       .  S
C1008      C1260   1.507       .  S
C1009      C1014   1.471       .  S
C1010      C1254   1.476       .  S
C1011      C1022   1.471       .  S
C1012      C1318   1.484       .  S
C1012      N1013   1.352       .  A
C1012      N1017   1.348       .  A
N1013      C1014   1.358       .  A
C1014      N1015   1.362       .  A
N1015      C1016   1.366       .  A
C1016      N1017   1.353       .  A
C1018      C1309   1.481       .  S
C1018      N1019   1.351       .  A
C1018      N1023   1.348   1_545  A
N1019      C1479   1.354       .  A
C1020      C1107   1.460       .  S
C1020      N1478   1.354       .  A
C1020      N1021   1.370       .  A
N1021      C1022   1.362       .  A
C1022      N1482   1.356       .  A
N1023      C1481   1.356       .  A
C1024      C1294   1.481       .  S
C1024      N1025   1.359   1_556  A
C1024      N1029   1.351       .  A
N1025      C1026   1.358       .  A
C1026      C1072   1.464       .  S
C1026      N1027   1.356   1_554  A
N1027      C1028   1.360       .  A
C1028      N1029   1.349       .  A
Zn1030     O1034   1.942   1_655  S
Zn1030     O1035   2.037       .  S
Zn1030     O1039   2.042       .  S
Zn1030     O1046   2.111       .  S
Zn1031     O1036   2.042       .  S
Zn1031     O1038   1.974       .  S
Zn1031     O1042   1.985       .  S
Zn1032     O1037   1.997       .  S
Zn1032     O1040   2.049       .  S
Zn1032     O1043   2.003       .  S
Zn1033     O1034   1.980   1_655  S
Zn1033     O1041   2.031       .  S
Zn1033     O1044   2.033       .  S
Zn1033     O1045   2.050       .  S
O1036      C1048   1.271       .  A
O1037      C1049   1.275       .  A
O1038      C1047   1.272       .  A
O1040      C1048   1.273       .  A
O1041      C1050   1.274   1_655  A
O1044      C1051   1.274   1_655  A
O1045      C1052   1.277       .  A
O1046      C1052   1.285       .  A
C1047      C1214   1.452       .  S
C1048      C1250   1.489       .  S
C1049      C1144   1.459       .  S
C1051      C1084   1.461       .  S
C1052      C1242   1.495       .  S
Zn1053     O1057   1.942       .  S
Zn1053     O1058   2.053       .  S
Zn1053     O1062   2.003       .  S
Zn1053     O1069   2.010       .  S
Zn1054     O1057   1.942       .  S
Zn1054     O1059   2.000       .  S
Zn1054     O1061   2.052       .  S
Zn1054     O1065   2.000       .  S
Zn1055     O1057   1.985       .  S
Zn1055     O1060   2.022       .  S
Zn1055     O1063   2.037       .  S
Zn1055     O1066   2.077       .  S
Zn1056     O1057   1.947       .  S
Zn1056     O1064   2.123       .  S
Zn1056     O1067   2.036       .  S
Zn1056     O1068   2.040       .  S
O1058      C1070   1.273       .  A
O1059      C1071   1.273       .  A
O1060      C1072   1.274       .  A
O1061      C1070   1.273       .  A
O1062      C1072   1.273       .  A
O1063      C1071   1.275       .  A
O1064      C1073   1.285       .  A
O1065      C1074   1.275       .  A
O1066      C1073   1.279       .  A
O1067      C1074   1.278       .  A
O1068      C1075   1.278       .  A
O1069      C1075   1.277       .  A
C1070      C1268   1.493       .  S
C1071      C1226   1.467       .  S
C1073      C1236   1.508       .  S
C1074      C1086   1.455   1_655  S
C1075      C1078   1.460       .  S
C1076      C1357   1.482       .  S
C1076      N1077   1.356       .  A
C1076      N1081   1.351       .  A
N1077      C1078   1.356       .  A
C1078      N1079   1.364       .  A
N1079      C1080   1.361       .  A
C1080      N1081   1.352       .  A
C1082      C1282   1.484       .  S
C1082      N1083   1.354       .  A
C1082      N1087   1.354       .  A
C1084      N1085   1.359   1_455  A
N1085      C1086   1.361   1_655  A
Zn1088     O1551   1.961       .  S
Zn1088     O1093   1.992       .  S
Zn1088     O1097   1.985       .  S
Zn1088     O1104   2.089       .  S
Zn1089     O1092   1.953       .  S
Zn1089     O1094   2.050       .  S
Zn1089     O1096   2.022       .  S
Zn1089     O1100   2.067       .  S
Zn1090     O1092   1.953       .  S
Zn1090     O1095   2.045       .  S
Zn1090     O1098   2.097       .  S
Zn1090     O1101   2.095       .  S
Zn1091     O1551   1.911       .  S
Zn1091     O1099   1.945       .  S
Zn1091     O1102   1.958       .  S
Zn1091     O1103   2.006       .  S
O1092     Zn1547   1.961   1_545  S
O1092     Zn1550   1.911   1_545  S
O1093      C1105   1.273       .  A
O1094      C1106   1.276       .  A
O1095      C1566   1.285       .  A
O1096      C1564   1.282       .  A
O1097      C1107   1.272       .  A
O1098      C1106   1.282       .  A
O1099      C1567   1.268       .  A
O1100      C1109   1.273       .  A
O1101      C1108   1.282       .  A
O1102      C1568   1.264       .  A
O1103      C1110   1.265       .  A
O1104      C1110   1.276       .  A
C1105      O1555   1.282       .  A
C1105      C1220   1.457       .  S
C1106      C1244   1.501       .  S
C1107      O1554   1.285       .  A
C1108      O1558   1.268   1_545  A
C1109      O1561   1.264   1_545  A
C1109      C1179   1.468   1_545  S
C1110      C1248   1.484       .  S
Zn1111     O1115   1.930       .  S
Zn1111     O1116   2.039       .  S
Zn1111     O1120   2.013       .  S
Zn1111     O1127   1.989       .  S
Zn1112     O1115   1.927       .  S
Zn1112     O1117   2.003       .  S
Zn1112     O1119   2.048       .  S
Zn1112     O1123   1.990       .  S
Zn1113     O1115   1.976       .  S
Zn1113     O1118   2.029       .  S
Zn1113     O1121   2.011       .  S
Zn1113     O1124   2.008       .  S
Zn1114     O1115   1.955       .  S
Zn1114     O1122   2.105       .  S
Zn1114     O1125   2.034       .  S
Zn1114     O1126   2.032       .  S
O1116      C1128   1.272       .  A
O1117      C1129   1.275       .  A
O1118      C1130   1.273       .  A
O1119      C1128   1.273       .  A
O1120      C1130   1.275       .  A
O1121      C1129   1.269       .  A
O1122      C1131   1.283       .  A
O1123      C1132   1.275       .  A
O1124      C1131   1.272       .  A
O1125      C1132   1.275       .  A
O1126      C1133   1.276       .  A
O1127      C1133   1.275       .  A
C1128      C1256   1.486       .  S
C1129      C1138   1.456       .  S
C1130      C1142   1.467       .  S
C1131      C1262   1.484       .  S
C1132      C1185   1.456       .  S
C1134      C1273   1.481       .  S
C1134      N1135   1.359       .  A
C1134      N1139   1.347       .  A
N1135      C1136   1.359       .  A
C1136      N1137   1.366       .  A
N1137      C1138   1.359       .  A
C1138      N1139   1.345       .  A
C1140      C1306   1.482   1_455  S
C1140      N1141   1.355       .  A
C1140      N1145   1.351       .  A
C1142      N1143   1.363       .  A
N1143      C1144   1.364       .  A
Zn1146     O1150   1.975       .  S
Zn1146     O1151   2.091       .  S
Zn1146     O1155   2.091       .  S
Zn1146     O1162   2.049       .  S
Zn1147     O1150   1.932       .  S
Zn1147     O1152   2.007       .  S
Zn1147     O1154   2.029       .  S
Zn1147     O1158   1.988       .  S
Zn1148     O1150   1.934       .  S
Zn1148     O1153   1.925       .  S
Zn1148     O1156   1.994       .  S
Zn1148     O1159   2.030       .  S
Zn1149     O1150   1.976       .  S
Zn1149     O1157   2.039       .  S
Zn1149     O1160   2.021       .  S
Zn1149     O1161   1.960       .  S
O1151      C1163   1.283       .  A
O1152      C1164   1.271       .  A
O1153      C1165   1.265       .  A
O1154      C1163   1.273       .  A
O1155      C1165   1.279       .  A
O1156      C1164   1.268       .  A
O1157      C1166   1.271       .  A
O1158      C1167   1.275       .  A
O1159      C1166   1.271       .  A
O1160      C1167   1.271       .  A
O1161      C1168   1.268       .  A
O1162      C1168   1.282       .  A
C1163      C1238   1.493       .  S
C1164      C1232   1.451   1_545  S
C1165      C1183   1.468       .  S
C1166      C1266   1.473       .  S
C1167      C1177   1.458       .  S
C1168      C1173   1.458       .  S
C1169      C1369   1.480       .  S
C1169      N1170   1.356       .  A
C1169      N1174   1.353       .  A
N1170      C1171   1.355       .  A
C1171      N1172   1.357       .  A
N1172      C1173   1.362       .  A
C1173      N1174   1.351       .  A
C1175      C1285   1.482       .  S
C1175      N1176   1.346       .  A
C1175      N1180   1.351       .  A
N1176      C1636   1.351       .  A
C1177      N1635   1.351   1_545  A
C1177      N1178   1.366       .  A
N1178      C1179   1.365   1_545  A
C1179      N1639   1.360       .  A
N1180      C1638   1.360       .  A
C1181      C1297   1.482       .  S
C1181      N1182   1.346   1_556  A
C1181      N1186   1.351       .  A
N1182      C1183   1.354       .  A
C1183      N1184   1.363       .  A
N1184      C1185   1.369   1_554  A
C1185      N1186   1.356       .  A
Zn1187     O1191   1.920       .  S
Zn1187     O1192   1.995       .  S
Zn1187     O1196   1.932       .  S
Zn1187     O1203   2.067       .  S
Zn1188     O1191   1.947       .  S
Zn1188     O1193   2.032       .  S
Zn1188     O1195   2.005       .  S
Zn1188     O1199   1.986       .  S
Zn1189     O1191   1.987       .  S
Zn1189     O1194   2.094       .  S
Zn1189     O1197   2.057       .  S
Zn1189     O1200   2.057       .  S
Zn1190     O1191   1.971       .  S
Zn1190     O1198   1.984       .  S
Zn1190     O1201   2.042       .  S
Zn1190     O1202   2.067       .  S
O1192      C1204   1.271       .  A
O1193      C1205   1.272       .  A
O1194      C1206   1.282       .  A
O1195      C1204   1.271       .  A
O1196      C1206   1.267       .  A
O1197      C1205   1.274       .  A
O1198      C1207   1.270       .  A
O1199      C1208   1.272       .  A
O1200      C1207   1.281       .  A
O1201      C1208   1.276       .  A
O1202      C1209   1.276       .  A
O1203      C1209   1.276       .  A
C1204      C1224   1.450       .  S
C1205      C1252   1.487       .  S
C1206      C1230   1.467       .  S
C1207      C1218   1.465       .  S
C1208      C1212   1.460       .  S
C1209      C1258   1.492       .  S
C1210      C1321   1.484   1_455  S
C1210      N1211   1.353       .  A
C1210      N1215   1.354       .  A
C1212      N1213   1.358       .  A
N1213      C1214   1.361       .  A
C1216      C1270   1.481       .  S
C1216      N1217   1.361       .  A
C1216      N1221   1.347       .  A
N1217      C1677   1.360   1_545  A
C1218      N1676   1.360       .  A
C1218      N1219   1.362       .  A
N1219      C1220   1.361       .  A
C1220      N1680   1.346       .  A
N1221      C1679   1.346       .  A
C1222      C1345   1.485       .  S
C1222      N1227   1.356   1_556  A
N1223      C1224   1.352       .  A
N1225      C1226   1.357   1_556  A
C1226      N1227   1.356       .  A
C1228      C1333   1.480       .  S
C1228      N1688   1.350       .  A
C1228      N1233   1.349       .  A
N1229      C1687   1.350       .  A
N1229      C1230   1.354   1_554  A
C1230      N1690   1.363   1_556  A
N1231      C1689   1.363   1_554  A
N1231      C1232   1.368       .  A
C1232      N1233   1.353       .  A
C1234      N1694   1.372   1_545  A
N1235      C1693   1.372       .  A
N1235      C1236   1.368       .  A
N1237      C1697   1.371       .  A
C1238      N1696   1.371   1_545  A
C1238      N1239   1.362       .  A
C1240      N1241   1.368       .  A
C1240      N1245   1.366       .  A
N1241      C1242   1.368       .  A
C1242      N1243   1.367       .  A
N1243      C1244   1.367       .  A
C1244      N1245   1.368       .  A
C1246      N1247   1.365       .  A
C1246      N1251   1.363       .  A
N1247      C1248   1.364       .  A
C1248      N1249   1.365       .  A
N1249      C1250   1.365       .  A
C1250      N1251   1.362       .  A
C1252      N1716   1.364       .  A
N1253      C1254   1.361       .  A
C1254      N1714   1.360       .  A
N1255      C1713   1.360   1_545  A
C1256      N1257   1.366       .  A
N1257      C1711   1.364   1_545  A
C1258      N1259   1.370       .  A
C1258      N1263   1.361       .  A
N1259      C1260   1.371       .  A
C1260      N1261   1.368       .  A
N1261      C1262   1.367       .  A
C1262      N1263   1.361       .  A
C1264      N1265   1.356       .  A
C1264      N1269   1.364       .  A
N1265      C1266   1.356       .  A
C1266      N1267   1.365       .  A
N1267      C1268   1.367       .  A
C1268      N1269   1.366       .  A
C1270      C1271   1.401       .  A
C1270      C1275   1.420       .  A
C1271      C1272   1.393       .  A
C1271      H1276   1.083       .  S
C1272      C1273   1.417       .  A
C1272      C1279   1.445       .  S
C1273      C1274   1.401       .  A
C1274      C1275   1.395       .  A
C1274      H1277   1.084       .  S
C1275      C1278   1.445       .  S
C1278      N1280   1.158       .  T
C1279      N1281   1.157       .  T
C1282      C1283   1.408       .  A
C1282      C1287   1.414       .  A
C1283      C1284   1.397       .  A
C1283      H1288   1.084       .  S
C1284      C1285   1.409       .  A
C1284      C1291   1.443       .  S
C1285      C1286   1.406       .  A
C1286      C1287   1.394       .  A
C1286      H1289   1.084       .  S
C1287      C1290   1.444       .  S
C1290      N1292   1.157       .  T
C1291      N1293   1.157       .  T
C1294      C1295   1.402       .  A
C1294      C1299   1.416       .  A
C1295      C1296   1.394       .  A
C1295      H1300   1.082   1_556  S
C1296      C1297   1.415       .  A
C1296      C1303   1.444   1_556  S
C1297      C1298   1.404       .  A
C1298      C1299   1.396       .  A
C1298      H1301   1.084       .  S
C1299      C1302   1.445       .  S
C1302      N1304   1.157       .  T
C1303      N1305   1.157       .  T
C1306      C1307   1.404       .  A
C1306      C1311   1.414       .  A
C1307      C1308   1.394       .  A
C1307      H1312   1.082       .  S
C1308      C1309   1.413       .  A
C1308      C1315   1.444       .  S
C1309      C1310   1.404       .  A
C1310      C1311   1.395       .  A
C1310      H1313   1.085       .  S
C1311      C1314   1.444       .  S
C1314      N1316   1.157       .  T
C1315      N1317   1.157   1_545  T
C1318      C1319   1.406       .  A
C1318      C1323   1.416       .  A
C1319      C1320   1.396       .  A
C1319      H1324   1.084       .  S
C1320      C1321   1.413       .  A
C1320      C1327   1.445   1_655  S
C1321      C1322   1.405       .  A
C1322      C1323   1.397       .  A
C1322      H1325   1.085       .  S
C1323      C1326   1.445       .  S
C1326      N1328   1.158       .  T
C1327      N1329   1.157       .  T
C1330      C1419   1.478       .  S
C1330      C1331   1.406       .  A
C1330      C1794   1.412       .  A
C1331      C1332   1.394       .  A
C1331      H1336   1.084       .  S
C1332      C1333   1.412       .  A
C1332      C1339   1.444       .  S
C1333      C1793   1.407       .  A
C1334      C1792   1.407       .  A
C1334      C1335   1.395       .  A
C1334      H1337   1.085       .  S
C1335      C1789   1.412       .  A
C1335      C1338   1.445   1_554  S
C1338      N1340   1.157       .  T
C1339      N1341   1.157       .  T
C1342      C1347   1.411       .  A
C1343      C1344   1.395       .  A
C1343      H1348   1.085   1_556  S
C1344      C1345   1.414       .  A
C1344      C1351   1.445   1_556  S
C1346      C1347   1.397       .  A
C1346      H1349   1.085       .  S
C1347      C1350   1.445       .  S
C1350      N1352   1.158       .  T
C1351      N1353   1.157       .  T
C1354      C1355   1.403       .  A
C1354      C1359   1.416       .  A
C1355      C1356   1.395       .  A
C1355      H1360   1.083       .  S
C1356      C1357   1.416       .  A
C1356      C1363   1.445       .  S
C1357      C1358   1.404       .  A
C1358      C1359   1.395       .  A
C1358      H1361   1.084       .  S
C1359      C1362   1.445       .  S
C1362      N1364   1.157       .  T
C1363      N1365   1.157       .  T
C1366      C1367   1.404       .  A
C1366      C1371   1.415       .  A
C1367      C1368   1.394       .  A
C1367      H1372   1.085       .  S
C1368      C1369   1.414       .  A
C1368      C1375   1.445       .  S
C1369      C1370   1.405       .  A
C1370      C1371   1.395       .  A
C1370      H1373   1.084       .  S
C1371      C1374   1.445       .  S
C1374      N1376   1.157       .  T
C1375      N1377   1.157       .  T
Zn1378     O1382   1.975       .  S
Zn1378     O1383   2.095       .  S
Zn1378     O1387   2.101       .  S
Zn1378     O1394   2.063       .  S
Zn1379     O1382   1.936       .  S
Zn1379     O1384   1.998       .  S
Zn1379     O1386   1.921       .  S
Zn1379     O1390   2.029       .  S
Zn1380     O1382   1.936       .  S
Zn1380     O1385   2.024       .  S
Zn1380     O1388   2.019       .  S
Zn1380     O1391   1.986       .  S
Zn1381     O1382   1.974       .  S
Zn1381     O1389   2.019       .  S
Zn1381     O1392   2.033       .  S
Zn1381     O1393   1.965       .  S
O1383      C1395   1.280       .  A
O1384      C1396   1.268       .  A
O1385      C1397   1.273       .  A
O1386      C1395   1.265       .  A
O1387      C1397   1.284       .  A
O1388      C1396   1.271       .  A
O1389      C1398   1.271       .  A
O1390      C1399   1.271       .  A
O1391      C1398   1.275       .  A
O1392      C1399   1.271       .  A
O1393      C1400   1.268       .  A
O1394      C1400   1.283       .  A
C1395      C1417   1.468       .  S
C1396      C1423   1.456       .  S
C1397      C1693   1.495       .  S
C1398      C1409   1.459       .  S
C1399      C1723   1.471       .  S
C1400      C1405   1.463   1_655  S
C1401      C1825   1.480       .  S
C1401      N1402   1.352       .  A
C1401      N1406   1.356       .  A
C1403      C1509   1.464       .  S
C1403      N1404   1.359   1_455  A
N1404      C1405   1.366   1_655  A
C1407      C1813   1.482       .  S
C1407      N1408   1.344       .  A
C1407      N1412   1.350       .  A
C1409      N1410   1.368       .  A
N1410      C1411   1.366       .  A
C1411      C1567   1.470       .  S
C1413      C1801   1.483       .  S
C1413      N1414   1.350       .  A
N1414      C1415   1.355       .  A
C1415      C1592   1.453       .  S
C1415      N1416   1.367   1_556  A
C1417      N1418   1.356       .  A
C1419      N1420   1.356       .  A
N1420      C1421   1.354   1_554  A
C1421      C1465   1.460       .  S
N1422      C1423   1.362       .  A
C1423      N1424   1.349       .  A
Zn1425     O1429   1.947       .  S
Zn1425     O1430   2.034       .  S
Zn1425     O1434   2.111       .  S
Zn1425     O1441   2.035       .  S
Zn1426     O1429   1.934       .  S
Zn1426     O1431   1.999       .  S
Zn1426     O1433   1.979       .  S
Zn1426     O1437   2.045       .  S
Zn1427     O1429   1.982       .  S
Zn1427     O1432   2.054       .  S
Zn1427     O1435   2.028       .  S
Zn1427     O1438   2.033       .  S
Zn1428     O1429   1.939       .  S
Zn1428     O1436   1.998       .  S
Zn1428     O1439   2.046       .  S
Zn1428     O1440   2.009       .  S
O1430      C1442   1.276       .  A
O1431      C1443   1.274       .  A
O1432      C1444   1.277       .  A
O1433      C1442   1.273       .  A
O1434      C1444   1.284       .  A
O1435      C1443   1.273       .  A
O1436      C1445   1.273       .  A
O1437      C1446   1.272       .  A
O1438      C1445   1.275       .  A
O1439      C1446   1.273       .  A
O1440      C1447   1.275       .  A
O1441      C1447   1.277       .  A
C1442      C1475   1.452       .  S
C1443      C1539   1.463       .  S
C1444      C1699   1.498       .  S
C1445      C1630   1.462       .  S
C1446      C1705   1.488       .  S
C1447      C1595   1.461       .  S
Zn1448     O1452   1.972       .  S
Zn1448     O1453   2.087       .  S
Zn1448     O1457   2.090       .  S
Zn1448     O1464   2.115       .  S
Zn1449     O1452   1.948       .  S
Zn1449     O1454   1.968       .  S
Zn1449     O1456   1.951       .  S
Zn1449     O1460   2.053       .  S
Zn1450     O1452   1.964       .  S
Zn1450     O1455   2.080       .  S
Zn1450     O1458   2.035       .  S
Zn1450     O1461   2.083       .  S
Zn1451     O1452   1.907       .  S
Zn1451     O1459   1.957       .  S
Zn1451     O1462   2.010       .  S
Zn1451     O1463   1.924       .  S
O1453      C1465   1.286       .  A
O1454      C1466   1.270       .  A
O1455      C1467   1.280       .  A
O1456      C1465   1.267       .  A
O1457      C1467   1.280       .  A
O1458      C1466   1.282       .  A
O1459      C1468   1.264       .  A
O1460      C1469   1.270       .  A
O1461      C1468   1.276       .  A
O1462      C1469   1.264       .  A
O1463      C1470   1.267       .  A
O1464      C1470   1.286       .  A
C1466      C1487   1.454       .  S
C1467      C1719   1.507       .  S
C1468      C1473   1.471       .  S
C1469      C1713   1.476       .  S
C1470      C1481   1.471       .  S
C1471      C1777   1.484       .  S
C1471      N1472   1.352       .  A
C1471      N1476   1.348       .  A
N1472      C1473   1.358       .  A
C1473      N1474   1.362       .  A
N1474      C1475   1.366       .  A
C1475      N1476   1.353       .  A
C1477      C1768   1.481       .  S
C1477      N1478   1.351       .  A
C1477      N1482   1.348       .  A
C1479      C1566   1.460       .  S
C1479      N1480   1.370   1_545  A
N1480      C1481   1.362       .  A
C1483      C1753   1.481       .  S
C1483      N1484   1.359   1_556  A
C1483      N1488   1.351       .  A
N1484      C1485   1.358       .  A
C1485      C1531   1.464       .  S
C1485      N1486   1.356   1_554  A
N1486      C1487   1.360       .  A
C1487      N1488   1.349       .  A
Zn1489     O1493   1.942   1_655  S
Zn1489     O1494   2.037       .  S
Zn1489     O1498   2.042       .  S
Zn1489     O1505   2.111       .  S
Zn1490     O1495   2.042       .  S
Zn1490     O1497   1.974       .  S
Zn1490     O1501   1.985       .  S
Zn1491     O1496   1.997       .  S
Zn1491     O1499   2.049       .  S
Zn1491     O1502   2.003       .  S
Zn1492     O1493   1.980   1_655  S
Zn1492     O1500   2.031       .  S
Zn1492     O1503   2.033       .  S
Zn1492     O1504   2.050       .  S
O1495      C1507   1.271       .  A
O1496      C1508   1.275       .  A
O1497      C1506   1.272       .  A
O1499      C1507   1.273       .  A
O1500      C1509   1.274   1_655  A
O1503      C1510   1.274   1_655  A
O1504      C1511   1.277       .  A
O1505      C1511   1.285       .  A
C1506      C1673   1.452       .  S
C1507      C1709   1.489       .  S
C1508      C1603   1.459       .  S
C1510      C1543   1.461       .  S
C1511      C1701   1.495       .  S
Zn1512     O1516   1.942       .  S
Zn1512     O1517   2.053       .  S
Zn1512     O1521   2.003       .  S
Zn1512     O1528   2.010       .  S
Zn1513     O1516   1.942       .  S
Zn1513     O1518   2.000       .  S
Zn1513     O1520   2.052       .  S
Zn1513     O1524   2.000       .  S
Zn1514     O1516   1.985       .  S
Zn1514     O1519   2.022       .  S
Zn1514     O1522   2.037       .  S
Zn1514     O1525   2.077       .  S
Zn1515     O1516   1.947       .  S
Zn1515     O1523   2.123       .  S
Zn1515     O1526   2.036       .  S
Zn1515     O1527   2.040       .  S
O1517      C1529   1.273       .  A
O1518      C1530   1.273       .  A
O1519      C1531   1.274       .  A
O1520      C1529   1.273       .  A
O1521      C1531   1.273       .  A
O1522      C1530   1.275       .  A
O1523      C1532   1.285       .  A
O1524      C1533   1.275       .  A
O1525      C1532   1.279       .  A
O1526      C1533   1.278       .  A
O1527      C1534   1.278       .  A
O1528      C1534   1.277       .  A
C1529      C1727   1.493       .  S
C1530      C1685   1.467       .  S
C1532      C1695   1.508       .  S
C1533      C1545   1.455   1_655  S
C1534      C1537   1.460       .  S
C1535      C1816   1.482       .  S
C1535      N1536   1.356       .  A
C1535      N1540   1.351       .  A
N1536      C1537   1.356       .  A
C1537      N1538   1.364       .  A
N1538      C1539   1.361       .  A
C1539      N1540   1.352       .  A
C1541      C1741   1.484       .  S
C1541      N1542   1.354       .  A
C1541      N1546   1.354       .  A
C1543      N1544   1.359   1_455  A
N1544      C1545   1.361   1_655  A
Zn1547     O1552   1.992       .  S
Zn1547     O1556   1.985       .  S
Zn1547     O1563   2.089       .  S
Zn1548     O1551   1.953       .  S
Zn1548     O1553   2.050       .  S
Zn1548     O1555   2.022       .  S
Zn1548     O1559   2.067       .  S
Zn1549     O1551   1.953       .  S
Zn1549     O1554   2.045       .  S
Zn1549     O1557   2.097       .  S
Zn1549     O1560   2.095       .  S
Zn1550     O1558   1.945       .  S
Zn1550     O1561   1.958       .  S
Zn1550     O1562   2.006       .  S
O1552      C1564   1.273   1_565  A
O1553      C1565   1.276       .  A
O1556      C1566   1.272   1_565  A
O1557      C1565   1.282       .  A
O1559      C1568   1.273       .  A
O1560      C1567   1.282       .  A
O1562      C1569   1.265       .  A
O1563      C1569   1.276       .  A
C1564      C1679   1.457       .  S
C1565      C1703   1.501       .  S
C1568      C1638   1.468       .  S
C1569      C1707   1.484       .  S
Zn1570     O1574   1.930       .  S
Zn1570     O1575   2.039       .  S
Zn1570     O1579   2.013       .  S
Zn1570     O1586   1.989       .  S
Zn1571     O1574   1.927       .  S
Zn1571     O1576   2.003       .  S
Zn1571     O1578   2.048       .  S
Zn1571     O1582   1.990       .  S
Zn1572     O1574   1.976       .  S
Zn1572     O1577   2.029       .  S
Zn1572     O1580   2.011       .  S
Zn1572     O1583   2.008       .  S
Zn1573     O1574   1.955       .  S
Zn1573     O1581   2.105       .  S
Zn1573     O1584   2.034       .  S
Zn1573     O1585   2.032       .  S
O1575      C1587   1.272       .  A
O1576      C1588   1.275       .  A
O1577      C1589   1.273       .  A
O1578      C1587   1.273       .  A
O1579      C1589   1.275       .  A
O1580      C1588   1.269       .  A
O1581      C1590   1.283       .  A
O1582      C1591   1.275       .  A
O1583      C1590   1.272       .  A
O1584      C1591   1.275       .  A
O1585      C1592   1.276       .  A
O1586      C1592   1.275       .  A
C1587      C1715   1.486       .  S
C1588      C1597   1.456       .  S
C1589      C1601   1.467       .  S
C1590      C1721   1.484       .  S
C1591      C1644   1.456       .  S
C1593      C1732   1.481       .  S
C1593      N1594   1.359       .  A
C1593      N1598   1.347       .  A
N1594      C1595   1.359       .  A
C1595      N1596   1.366       .  A
N1596      C1597   1.359       .  A
C1597      N1598   1.345       .  A
C1599      C1765   1.482   1_455  S
C1599      N1600   1.355       .  A
C1599      N1604   1.351       .  A
C1601      N1602   1.363       .  A
N1602      C1603   1.364       .  A
Zn1605     O1609   1.975       .  S
Zn1605     O1610   2.091       .  S
Zn1605     O1614   2.091       .  S
Zn1605     O1621   2.049       .  S
Zn1606     O1609   1.932       .  S
Zn1606     O1611   2.007       .  S
Zn1606     O1613   2.029       .  S
Zn1606     O1617   1.988       .  S
Zn1607     O1609   1.934       .  S
Zn1607     O1612   1.925       .  S
Zn1607     O1615   1.994       .  S
Zn1607     O1618   2.030       .  S
Zn1608     O1609   1.976       .  S
Zn1608     O1616   2.039       .  S
Zn1608     O1619   2.021       .  S
Zn1608     O1620   1.960       .  S
O1610      C1622   1.283       .  A
O1611      C1623   1.271       .  A
O1612      C1624   1.265       .  A
O1613      C1622   1.273       .  A
O1614      C1624   1.279       .  A
O1615      C1623   1.268       .  A
O1616      C1625   1.271       .  A
O1617      C1626   1.275       .  A
O1618      C1625   1.271       .  A
O1619      C1626   1.271       .  A
O1620      C1627   1.268       .  A
O1621      C1627   1.282       .  A
C1622      C1697   1.493       .  S
C1623      C1691   1.451       .  S
C1624      C1642   1.468       .  S
C1625      C1725   1.473       .  S
C1626      C1636   1.458       .  S
C1627      C1632   1.458       .  S
C1628      C1828   1.480       .  S
C1628      N1629   1.356       .  A
C1628      N1633   1.353       .  A
N1629      C1630   1.355       .  A
C1630      N1631   1.357       .  A
N1631      C1632   1.362       .  A
C1632      N1633   1.351       .  A
C1634      C1744   1.482       .  S
C1634      N1635   1.346       .  A
C1634      N1639   1.351       .  A
C1636      N1637   1.366       .  A
N1637      C1638   1.365       .  A
C1640      C1756   1.482       .  S
C1640      N1641   1.346   1_556  A
C1640      N1645   1.351       .  A
N1641      C1642   1.354       .  A
C1642      N1643   1.363       .  A
N1643      C1644   1.369   1_554  A
C1644      N1645   1.356       .  A
Zn1646     O1650   1.920       .  S
Zn1646     O1651   1.995       .  S
Zn1646     O1655   1.932       .  S
Zn1646     O1662   2.067       .  S
Zn1647     O1650   1.947       .  S
Zn1647     O1652   2.032       .  S
Zn1647     O1654   2.005       .  S
Zn1647     O1658   1.986       .  S
Zn1648     O1650   1.987       .  S
Zn1648     O1653   2.094       .  S
Zn1648     O1656   2.057       .  S
Zn1648     O1659   2.057       .  S
Zn1649     O1650   1.971       .  S
Zn1649     O1657   1.984       .  S
Zn1649     O1660   2.042       .  S
Zn1649     O1661   2.067       .  S
O1651      C1663   1.271       .  A
O1652      C1664   1.272       .  A
O1653      C1665   1.282       .  A
O1654      C1663   1.271       .  A
O1655      C1665   1.267       .  A
O1656      C1664   1.274       .  A
O1657      C1666   1.270       .  A
O1658      C1667   1.272       .  A
O1659      C1666   1.281       .  A
O1660      C1667   1.276       .  A
O1661      C1668   1.276       .  A
O1662      C1668   1.276       .  A
C1663      C1683   1.450       .  S
C1664      C1711   1.487       .  S
C1665      C1689   1.467       .  S
C1666      C1677   1.465       .  S
C1667      C1671   1.460       .  S
C1668      C1717   1.492       .  S
C1669      C1780   1.484   1_455  S
C1669      N1670   1.353       .  A
C1669      N1674   1.354       .  A
C1671      N1672   1.358       .  A
N1672      C1673   1.361       .  A
C1675      C1729   1.481       .  S
C1675      N1676   1.361       .  A
C1675      N1680   1.347       .  A
C1677      N1678   1.362       .  A
N1678      C1679   1.361   1_565  A
C1681      C1804   1.485       .  S
C1681      N1686   1.356   1_556  A
N1682      C1683   1.352       .  A
N1684      C1685   1.357   1_556  A
C1685      N1686   1.356       .  A
C1687      C1792   1.480       .  S
C1687      N1692   1.349       .  A
N1688      C1689   1.354   1_554  A
N1690      C1691   1.368       .  A
C1691      N1692   1.353       .  A
N1694      C1695   1.368       .  A
C1697      N1698   1.362       .  A
C1699      N1700   1.368       .  A
C1699      N1704   1.366       .  A
N1700      C1701   1.368       .  A
C1701      N1702   1.367       .  A
N1702      C1703   1.367       .  A
C1703      N1704   1.368       .  A
C1705      N1706   1.365       .  A
C1705      N1710   1.363       .  A
N1706      C1707   1.364       .  A
C1707      N1708   1.365       .  A
N1708      C1709   1.365       .  A
C1709      N1710   1.362       .  A
N1712      C1713   1.361       .  A
C1715      N1716   1.366       .  A
C1717      N1718   1.370       .  A
C1717      N1722   1.361       .  A
N1718      C1719   1.371       .  A
C1719      N1720   1.368       .  A
N1720      C1721   1.367       .  A
C1721      N1722   1.361       .  A
C1723      N1724   1.356       .  A
C1723      N1728   1.364       .  A
N1724      C1725   1.356       .  A
C1725      N1726   1.365       .  A
N1726      C1727   1.367       .  A
C1727      N1728   1.366       .  A
C1729      C1730   1.401       .  A
C1729      C1734   1.420       .  A
C1730      C1731   1.393       .  A
C1730      H1735   1.083       .  S
C1731      C1732   1.417       .  A
C1731      C1738   1.445       .  S
C1732      C1733   1.401       .  A
C1733      C1734   1.395       .  A
C1733      H1736   1.084       .  S
C1734      C1737   1.445       .  S
C1737      N1739   1.158       .  T
C1738      N1740   1.157       .  T
C1741      C1742   1.408       .  A
C1741      C1746   1.414       .  A
C1742      C1743   1.397       .  A
C1742      H1747   1.084       .  S
C1743      C1744   1.409       .  A
C1743      C1750   1.443       .  S
C1744      C1745   1.406       .  A
C1745      C1746   1.394       .  A
C1745      H1748   1.084       .  S
C1746      C1749   1.444       .  S
C1749      N1751   1.157       .  T
C1750      N1752   1.157       .  T
C1753      C1754   1.402       .  A
C1753      C1758   1.416       .  A
C1754      C1755   1.394       .  A
C1754      H1759   1.082   1_556  S
C1755      C1756   1.415       .  A
C1755      C1762   1.444   1_556  S
C1756      C1757   1.404       .  A
C1757      C1758   1.396       .  A
C1757      H1760   1.084       .  S
C1758      C1761   1.445       .  S
C1761      N1763   1.157       .  T
C1762      N1764   1.157       .  T
C1765      C1766   1.404       .  A
C1765      C1770   1.414       .  A
C1766      C1767   1.394       .  A
C1766      H1771   1.082       .  S
C1767      C1768   1.413       .  A
C1767      C1774   1.444       .  S
C1768      C1769   1.404       .  A
C1769      C1770   1.395       .  A
C1769      H1772   1.085       .  S
C1770      C1773   1.444       .  S
C1773      N1775   1.157       .  T
C1774      N1776   1.157       .  T
C1777      C1778   1.406       .  A
C1777      C1782   1.416       .  A
C1778      C1779   1.396       .  A
C1778      H1783   1.084       .  S
C1779      C1780   1.413       .  A
C1779      C1786   1.445   1_655  S
C1780      C1781   1.405       .  A
C1781      C1782   1.397       .  A
C1781      H1784   1.085       .  S
C1782      C1785   1.445       .  S
C1785      N1787   1.158       .  T
C1786      N1788   1.157       .  T
C1789      C1790   1.406       .  A
C1790      C1791   1.394       .  A
C1790      H1795   1.084       .  S
C1791      C1792   1.412       .  A
C1791      C1798   1.444       .  S
C1793      C1794   1.395       .  A
C1793      H1796   1.085       .  S
C1794      C1797   1.445   1_554  S
C1797      N1799   1.157       .  T
C1798      N1800   1.157       .  T
C1801      C1806   1.411       .  A
C1802      C1803   1.395       .  A
C1802      H1807   1.085   1_556  S
C1803      C1804   1.414       .  A
C1803      C1810   1.445   1_556  S
C1805      C1806   1.397       .  A
C1805      H1808   1.085       .  S
C1806      C1809   1.445       .  S
C1809      N1811   1.158       .  T
C1810      N1812   1.157       .  T
C1813      C1814   1.403       .  A
C1813      C1818   1.416       .  A
C1814      C1815   1.395       .  A
C1814      H1819   1.083       .  S
C1815      C1816   1.416       .  A
C1815      C1822   1.445       .  S
C1816      C1817   1.404       .  A
C1817      C1818   1.395       .  A
C1817      H1820   1.084       .  S
C1818      C1821   1.445       .  S
C1821      N1823   1.157       .  T
C1822      N1824   1.157       .  T
C1825      C1826   1.404       .  A
C1825      C1830   1.415       .  A
C1826      C1827   1.394       .  A
C1826      H1831   1.085       .  S
C1827      C1828   1.414       .  A
C1827      C1834   1.445       .  S
C1828      C1829   1.405       .  A
C1829      C1830   1.395       .  A
C1829      H1832   1.084       .  S
C1830      C1833   1.445       .  S
C1833      N1835   1.157       .  T
C1834      N1836   1.157       .  T
