geometry optimzed in LAMMPS
_audit_creation_date              2020-11-30 
_audit_creation_method            'lammps2cif' 
_symmetry_space_group_name_H-M    'P1' 
_symmetry_Int_Tables_number       1 
_symmetry_cell_setting            triclinic 
loop_ 
_symmetry_equiv_pos_as_xyz 
  x,y,z 
_cell_length_a                    27.529467630088682 
_cell_length_b                    27.508274450443164 
_cell_length_c                    27.461521567978284 
_cell_angle_alpha                 82.70122888402611 
_cell_angle_beta                  82.88261464644268 
_cell_angle_gamma                 96.39990220262257 
loop_ 
_atom_site_label 
_atom_site_type_symbol 
_atom_site_fract_x 
_atom_site_fract_y 
_atom_site_fract_z 
_atom_site_charge 
C1          C  0.09768729  0.29881207  0.51393563     0.02730
C2          C  0.14866048  0.29961458  0.01197230    -0.13420
C3          C  0.16962455  0.25614914  0.00930160     0.00230
C4          C  0.14172969  0.21350560  0.00165504    -0.11950
C5          C  0.09055799  0.20958449  0.50981602     0.02720
C6          C  0.06776307  0.25286363  0.51496443    -0.11370
H7          H  0.17103796  0.33237616  0.01894049     0.08310
H8          H  0.15954576  0.18033644  0.99974436     0.05840
H9          H  0.02794208  0.25040471  0.52259939     0.05690
C10         C  0.40333960  0.17337073  0.11367452     0.02730
C11         C  0.35322193  0.17155678  0.10940225    -0.13420
C12         C  0.33090187  0.21437271  0.10866443     0.00230
C13         C  0.35600292  0.25787758  0.11781086    -0.11950
C14         C  0.40697792  0.26283517  0.11625815     0.02720
C15         C  0.43132147  0.21989282  0.11511257    -0.11370
H16         H  0.33298996  0.13819561  0.10095646     0.08310
H17         H  0.33685352  0.29036712  0.11721297     0.05840
H18         H  0.47118185  0.22303883  0.11209496     0.05690
C19         C  0.18613865  0.43730201  0.16269659     0.02730
C20         C  0.18268412  0.43844991  0.21370406    -0.13420
C21         C  0.22481379  0.43834363  0.23689246     0.00230
C22         C  0.26974577  0.43266426  0.21079465    -0.11950
C23         C  0.27586146  0.43659216  0.15942445     0.02720
C24         C  0.23347139  0.43802414  0.13472570    -0.11370
H25         H  0.14835090  0.44496683  0.23435023     0.08310
H26         H  0.30197102  0.43326072  0.23000062     0.05840
H27         H  0.23750506  0.44261105  0.09461520     0.05690
C28         C  0.31292406  0.03668225  0.46536098     0.02730
C29         C  0.31528735  0.03947637  0.41397041    -0.13420
C30         C  0.27242974  0.04152577  0.39204052     0.00230
C31         C  0.22821901  0.04636188  0.42003856    -0.11950
C32         C  0.22325591  0.03828363  0.47145725     0.02720
C33         C  0.26613701  0.03435236  0.99482832    -0.11370
H34         H  0.34912574  0.03387935  0.39180397     0.08310
H35         H  0.19535164  0.04733904  0.40190036     0.05840
H36         H  0.26289380  0.02683589  0.03485861     0.05690
C37         C  0.05013044  0.08530709  0.25043971     0.02730
C38         C  0.05465952  0.13667255  0.24788298    -0.13420
C39         C  0.05775904  0.15833504  0.29077962     0.00230
C40         C  0.06233552  0.12982780  0.33497222    -0.11950
C41         C  0.05250208  0.07868510  0.34010775     0.02720
C42         C  0.04731082  0.05568429  0.29733605    -0.11370
H43         H  0.04935320  0.15924705  0.21405915     0.08310
H44         H  0.06408545  0.14769098  0.36792890     0.05840
H45         H  0.03855607  0.01591238  0.30078916     0.05690
C46         C  0.45165543  0.38824005  0.37945787     0.02730
C47         C  0.45491670  0.33766009  0.38265085    -0.13420
C48         C  0.45524056  0.31471193  0.34038611     0.00230
C49         C  0.44836055  0.34059172  0.29562711    -0.11950
C50         C  0.45039334  0.39173234  0.28966124     0.02720
C51         C  0.45107414  0.41616333  0.33221094    -0.11370
H52         H  0.46238793  0.31723860  0.41681618     0.08310
H53         H  0.44934172  0.32152546  0.26328360     0.05840
H54         H  0.45430077  0.45611310  0.32828433     0.05690
O55         O  0.08097561  0.38085315  0.99055629    -0.86890
O56         O  0.44077095  0.45631580  0.22620659    -0.87060
O57         O  0.10594251  0.41212701  0.14323209    -0.88720
O58         O  0.47130960  0.32545146  0.12527526    -0.87480
O59         O  0.41093776  0.34565639  0.07848368    -0.87070
O60         O  0.14045447  0.49335336  0.12279367    -0.88440
O61         O  0.48801201  0.39590294  0.20662195    -0.86920
O62         O  0.06010677  0.34439190  0.07166788    -0.86510
Zr63       Zr  0.02265618  0.40411357  0.11799031     2.84310
O64         O  0.44361358  0.42972733  0.12199809    -1.08480
O65         O  0.07843368  0.46109855  0.06173449    -1.09210
C66         C  0.07743946  0.34396897  0.02584607     1.06220
C67         C  0.46045057  0.41689059  0.23767047     1.06160
C68         C  0.14184063  0.44774217  0.14001427     1.09140
C69         C  0.43200019  0.31442236  0.10597410     1.06920
H70         H  0.03726485  0.47896964  0.17475757     0.32480
O71         O  0.02549200  0.48211732  0.14300862    -1.29430
H72         H  0.49290346  0.37661682  0.02788979     0.32150
O73         O  0.49612656  0.40829825  0.03949306    -1.31110
O74         O  0.42235317  0.09248582  0.13918455    -0.86880
O75         O  0.06040416  0.01460952  0.40406726    -0.88380
O76         O  0.07314564  0.06819322  0.16865257    -0.86960
O77         O  0.33937618  0.42768158  0.09510218    -0.87010
O78         O  0.42619000  0.40803520  0.45988943    -0.86720
O79         O  0.15950350  0.04677514  0.03547180    -0.86530
O80         O  0.02660744  0.14651740  0.00222282    -0.86900
O81         O  0.39416269  0.06035354  0.48281257    -0.86360
O82         O  0.08582655  0.12814729  0.05124119    -0.87430
O83         O  0.35840899  0.47967654  0.00470793    -0.86580
O84         O  0.49283410  0.04651240  0.20604286    -0.86980
O85         O  0.14194433  0.49768661  0.47654145    -0.86700
O86         O  0.50724108  0.42787915  0.42422825    -0.86350
O87         O  0.35838453  0.47428945  0.15556359    -0.86760
O88         O  0.44180117  0.12748725  0.05748521    -0.87060
O89         O  0.51120716  0.07414222  0.42167621    -0.88400
Zr90       Zr  0.44678034  0.00851009  0.14714800     2.83100
Zr91       Zr  0.05376252  0.46366712  0.48352590     2.83500
Zr92       Zr  0.08037909  0.03997192  0.08660982     2.84090
Zr93       Zr  0.41807697  0.43385870  0.04307104     2.83360
Zr94       Zr  0.47652524  0.06738550  0.01026455     2.84220
O95         O  0.47480143  0.48921698  0.98622934    -1.08970
O96         O  0.50198155  0.06428876  0.08915544    -1.08470
C97         C  0.42553052  0.12878660  0.10334886     1.06190
C98         C  0.03996647  0.05324862  0.39163672     1.08810
C99         C  0.03821711  0.06463255  0.20574355     1.06360
C100        C  0.32768714  0.44704629  0.13446142     1.06720
C101        C  0.46178053  0.41093871  0.42352824     1.06310
C102        C  0.17189998  0.02626521  0.99706108     1.05860
C103        C  0.06504322  0.15846236  0.02244732     1.06280
C104        C  0.35774943  0.02518647  0.48649999     1.05800
H105        H  0.07914888  0.06616733  0.48375654     0.32480
O106        O  0.05600797  0.04296598  0.00727577    -1.30070
H107        H  0.38943564  0.02409019  0.07219436     0.32500
O108        O  0.42122714  0.01232170  0.06901800    -1.31450
C109        C  0.03207966  0.27899798  0.32913999    -0.09560
C110        C  0.48018319  0.27141336  0.33629499     0.06640
C111        C  0.45482686  0.22847767  0.32456176    -0.03320
C112        C  0.48150819  0.19393685  0.30486642    -0.07770
C113        C  0.03338122  0.20162379  0.29724120     0.05750
C114        C  0.05884138  0.24414813  0.30980848    -0.02800
Br115      Br  0.12960681  0.25571322  0.30045363    -0.02490
H116        H  0.05164007  0.31321267  0.33632765     0.09670
H117        H  0.46183958  0.15983844  0.29751292     0.07680
Br118      Br  0.38407473  0.21625891  0.33473578    -0.02920
C119        C  0.26081752  0.46501154  0.35729520    -0.09560
C120        C  0.26668627  0.01694119  0.34904048     0.06640
C121        C  0.25291666  0.04206210  0.30634912    -0.03320
C122        C  0.23391833  0.01497105  0.27203375    -0.07770
C123        C  0.22849065  0.46303830  0.28012866     0.05750
C124        C  0.24164365  0.43795750  0.32313618    -0.02800
Br125      Br  0.23409514  0.36713315  0.33598159    -0.02490
H126        H  0.26914275  0.44555313  0.39152784     0.09670
H127        H  0.22572772  0.03438305  0.23772284     0.07680
Br128      Br  0.26009014  0.11288491  0.29382173    -0.02920
C129        C  0.24229892  0.21411691  0.10896939    -0.09560
C130        C  0.28926550  0.21972106  0.08207641     0.06640
C131        C  0.29764866  0.23949257  0.03124049    -0.03320
C132        C  0.25842360  0.25329631  0.00782427    -0.07770
C133        C  0.21151352  0.24817113  0.03490961     0.05750
C134        C  0.20317583  0.22814735  0.08570993    -0.02800
Br135      Br  0.13905016  0.21842946  0.12492418    -0.02490
H136        H  0.23642028  0.20011052  0.14824114     0.09670
H137        H  0.26434423  0.26765873  0.46864181     0.07680
Br138      Br  0.36223181  0.25042507  0.49289803    -0.02920
C139        C  0.09768729  0.29881208  0.01393566     0.02730
C140        C  0.14866048  0.29961457  0.51197219    -0.13420
C141        C  0.16962455  0.25614914  0.50930146     0.00230
C142        C  0.14172967  0.21350560  0.50165491    -0.11950
C143        C  0.09055801  0.20958449  0.00981607     0.02720
C144        C  0.06776308  0.25286363  0.01496442    -0.11370
H145        H  0.17103799  0.33237616  0.51894037     0.08310
H146        H  0.15954573  0.18033644  0.49974420     0.05840
H147        H  0.02794209  0.25040472  0.02259934     0.05690
C148        C  0.40333960  0.17337072  0.61367447     0.02730
C149        C  0.35322195  0.17155677  0.60940211    -0.13420
C150        C  0.33090189  0.21437271  0.60866424     0.00230
C151        C  0.35600292  0.25787758  0.61781070    -0.11950
C152        C  0.40697791  0.26283516  0.61625809     0.02720
C153        C  0.43132146  0.21989282  0.61511256    -0.11370
H154        H  0.33299000  0.13819560  0.60095630     0.08310
H155        H  0.33685351  0.29036712  0.61721278     0.05840
H156        H  0.47118184  0.22303882  0.61209502     0.05690
C157        C  0.18613866  0.43730200  0.66269659     0.02730
C158        C  0.18268413  0.43844990  0.71370406    -0.13420
C159        C  0.22481380  0.43834361  0.73689246     0.00230
C160        C  0.26974578  0.43266426  0.71079465    -0.11950
C161        C  0.27586146  0.43659216  0.65942445     0.02720
C162        C  0.23347139  0.43802414  0.63472570    -0.11370
H163        H  0.14835091  0.44496681  0.73435023     0.08310
H164        H  0.30197103  0.43326071  0.73000061     0.05840
H165        H  0.23750507  0.44261105  0.59461519     0.05690
C166        C  0.31292405  0.03668225  0.96536099     0.02730
C167        C  0.31528735  0.03947636  0.91397041    -0.13420
C168        C  0.27242974  0.04152576  0.89204052     0.00230
C169        C  0.22821901  0.04636187  0.92003856    -0.11950
C170        C  0.22325591  0.03828363  0.97145725     0.02720
C171        C  0.26613702  0.03435235  0.49482832    -0.11370
H172        H  0.34912574  0.03387934  0.89180398     0.08310
H173        H  0.19535164  0.04733902  0.90190036     0.05840
H174        H  0.26289381  0.02683587  0.53485861     0.05690
C175        C  0.05013044  0.08530709  0.75043971     0.02730
C176        C  0.05465953  0.13667255  0.74788298    -0.13420
C177        C  0.05775906  0.15833504  0.79077962     0.00230
C178        C  0.06233553  0.12982780  0.83497222    -0.11950
C179        C  0.05250208  0.07868510  0.84010775     0.02720
C180        C  0.04731081  0.05568429  0.79733605    -0.11370
H181        H  0.04935321  0.15924705  0.71405914     0.08310
H182        H  0.06408546  0.14769098  0.86792890     0.05840
H183        H  0.03855606  0.01591238  0.80078916     0.05690
C184        C  0.45165542  0.38824005  0.87945787     0.02730
C185        C  0.45491668  0.33766009  0.88265086    -0.13420
C186        C  0.45524054  0.31471193  0.84038611     0.00230
C187        C  0.44836054  0.34059172  0.79562711    -0.11950
C188        C  0.45039334  0.39173234  0.78966124     0.02720
C189        C  0.45107414  0.41616333  0.83221094    -0.11370
H190        H  0.46238792  0.31723859  0.91681619     0.08310
H191        H  0.44934170  0.32152546  0.76328361     0.05840
H192        H  0.45430077  0.45611310  0.82828433     0.05690
O193        O  0.08097562  0.38085315  0.49055628    -0.86890
O194        O  0.44077095  0.45631580  0.72620659    -0.87060
O195        O  0.10594252  0.41212701  0.64323209    -0.88720
O196        O  0.47130959  0.32545145  0.62527525    -0.87480
O197        O  0.41093776  0.34565640  0.57848366    -0.87070
O198        O  0.14045447  0.49335336  0.62279367    -0.88440
O199        O  0.48801201  0.39590294  0.70662195    -0.86920
O200        O  0.06010678  0.34439189  0.57166787    -0.86510
Zr201      Zr  0.02265619  0.40411357  0.61799030     2.84310
O202        O  0.44361358  0.42972733  0.62199809    -1.08480
O203        O  0.07843369  0.46109854  0.56173448    -1.09210
C204        C  0.07743947  0.34396896  0.52584606     1.06220
C205        C  0.46045057  0.41689058  0.73767047     1.06160
C206        C  0.14184064  0.44774217  0.64001426     1.09140
C207        C  0.43200019  0.31442235  0.60597407     1.06920
H208        H  0.03726485  0.47896964  0.67475757     0.32480
O209        O  0.02549201  0.48211731  0.64300861    -1.29430
H210        H  0.49290346  0.37661682  0.52788979     0.32150
O211        O  0.49612657  0.40829825  0.53949306    -1.31110
O212        O  0.42235319  0.09248582  0.63918454    -0.86880
O213        O  0.06040415  0.01460952  0.90406726    -0.88380
O214        O  0.07314564  0.06819322  0.66865257    -0.86960
O215        O  0.33937619  0.42768158  0.59510217    -0.87010
O216        O  0.42619000  0.40803520  0.95988943    -0.86720
O217        O  0.15950350  0.04677514  0.53547180    -0.86530
O218        O  0.02660743  0.14651739  0.50222281    -0.86900
O219        O  0.39416268  0.06035355  0.98281258    -0.86360
O220        O  0.08582654  0.12814730  0.55124116    -0.87430
O221        O  0.35840899  0.47967654  0.50470792    -0.86580
O222        O  0.49283410  0.04651240  0.70604286    -0.86980
O223        O  0.14194432  0.49768661  0.97654146    -0.86700
O224        O  0.50724107  0.42787916  0.92422825    -0.86350
O225        O  0.35838454  0.47428945  0.65556359    -0.86760
O226        O  0.44180118  0.12748724  0.55748519    -0.87060
O227        O  0.51120715  0.07414223  0.92167621    -0.88400
Zr228      Zr  0.44678035  0.00851008  0.64714800     2.83100
Zr229      Zr  0.05376250  0.46366712  0.98352590     2.83500
Zr230      Zr  0.08037909  0.03997192  0.58660981     2.84090
Zr231      Zr  0.41807697  0.43385870  0.54307103     2.83360
Zr232      Zr  0.47652525  0.06738549  0.51026454     2.84220
O233        O  0.47480144  0.48921698  0.48622933    -1.08970
O234        O  0.50198156  0.06428876  0.58915544    -1.08470
C235        C  0.42553053  0.12878659  0.60334884     1.06190
C236        C  0.03996647  0.05324862  0.89163672     1.08810
C237        C  0.03821711  0.06463255  0.70574354     1.06360
C238        C  0.32768715  0.44704628  0.63446142     1.06720
C239        C  0.46178052  0.41093871  0.92352824     1.06310
C240        C  0.17189998  0.02626521  0.49706108     1.05860
C241        C  0.06504321  0.15846236  0.52244730     1.06280
C242        C  0.35774942  0.02518648  0.98649999     1.05800
H243        H  0.07914888  0.06616733  0.98375654     0.32480
O244        O  0.05600797  0.04296597  0.50727577    -1.30070
H245        H  0.38943565  0.02409018  0.57219435     0.32500
O246        O  0.42122714  0.01232169  0.56901800    -1.31450
C247        C  0.03207967  0.27899798  0.82914001    -0.09560
C248        C  0.48018317  0.27141336  0.83629499     0.06640
C249        C  0.45482685  0.22847767  0.82456176    -0.03320
C250        C  0.48150818  0.19393686  0.80486642    -0.07770
C251        C  0.03338124  0.20162379  0.79724120     0.05750
C252        C  0.05884140  0.24414812  0.80980849    -0.02800
Br253      Br  0.12960683  0.25571321  0.80045365    -0.02490
H254        H  0.05164008  0.31321267  0.83632767     0.09670
H255        H  0.46183956  0.15983844  0.79751292     0.07680
Br256      Br  0.38407472  0.21625890  0.83473578    -0.02920
C257        C  0.26081756  0.46501153  0.85729518    -0.09560
C258        C  0.26668627  0.01694118  0.84904048     0.06640
C259        C  0.25291668  0.04206209  0.80634911    -0.03320
C260        C  0.23391835  0.01497104  0.77203374    -0.07770
C261        C  0.22849066  0.46303828  0.78012867     0.05750
C262        C  0.24164370  0.43795749  0.82313617    -0.02800
Br263      Br  0.23409524  0.36713314  0.83598156    -0.02490
H264        H  0.26914282  0.44555313  0.89152781     0.09670
H265        H  0.22572775  0.03438304  0.73772283     0.07680
Br266      Br  0.26009018  0.11288490  0.79382172    -0.02920
C267        C  0.24229895  0.21411686  0.60896921    -0.09560
C268        C  0.28926553  0.21972104  0.58207622     0.06640
C269        C  0.29764868  0.23949257  0.53124030    -0.03320
C270        C  0.25842361  0.25329631  0.50782410    -0.07770
C271        C  0.21151353  0.24817110  0.53490945     0.05750
C272        C  0.20317585  0.22814730  0.58570976    -0.02800
Br273      Br  0.13905019  0.21842939  0.62492403    -0.02490
H274        H  0.23642032  0.20011046  0.64824095     0.09670
H275        H  0.26434423  0.26765872  0.96864197     0.07680
Br276      Br  0.36223179  0.25042503  0.99289821    -0.02920
C277        C  0.09768729  0.79881207  0.51393564     0.02730
C278        C  0.14866048  0.79961458  0.01197226    -0.13420
C279        C  0.16962456  0.75614914  0.00930155     0.00230
C280        C  0.14172969  0.71350560  0.00165500    -0.11950
C281        C  0.09055801  0.70958449  0.50981604     0.02720
C282        C  0.06776308  0.75286363  0.51496443    -0.11370
H283        H  0.17103797  0.83237617  0.01894045     0.08310
H284        H  0.15954576  0.68033644  0.99974431     0.05840
H285        H  0.02794209  0.75040472  0.52259938     0.05690
C286        C  0.40333960  0.67337073  0.11367450     0.02730
C287        C  0.35322193  0.67155677  0.10940221    -0.13420
C288        C  0.33090187  0.71437271  0.10866438     0.00230
C289        C  0.35600292  0.75787758  0.11781081    -0.11950
C290        C  0.40697792  0.76283517  0.11625813     0.02720
C291        C  0.43132147  0.71989282  0.11511257    -0.11370
H292        H  0.33298997  0.63819560  0.10095642     0.08310
H293        H  0.33685351  0.79036712  0.11721291     0.05840
H294        H  0.47118185  0.72303883  0.11209498     0.05690
C295        C  0.18613865  0.93730201  0.16269659     0.02730
C296        C  0.18268412  0.93844991  0.21370406    -0.13420
C297        C  0.22481379  0.93834363  0.23689246     0.00230
C298        C  0.26974577  0.93266427  0.21079465    -0.11950
C299        C  0.27586145  0.93659216  0.15942445     0.02720
C300        C  0.23347138  0.93802414  0.13472570    -0.11370
H301        H  0.14835090  0.94496684  0.23435023     0.08310
H302        H  0.30197102  0.93326073  0.23000062     0.05840
H303        H  0.23750506  0.94261105  0.09461520     0.05690
C304        C  0.31292406  0.53668226  0.46536098     0.02730
C305        C  0.31528736  0.53947637  0.41397040    -0.13420
C306        C  0.27242975  0.54152577  0.39204051     0.00230
C307        C  0.22821902  0.54636188  0.42003856    -0.11950
C308        C  0.22325592  0.53828363  0.47145725     0.02720
C309        C  0.26613702  0.53435236  0.99482832    -0.11370
H310        H  0.34912575  0.53387935  0.39180397     0.08310
H311        H  0.19535165  0.54733903  0.40190036     0.05840
H312        H  0.26289381  0.52683589  0.03485861     0.05690
C313        C  0.05013044  0.58530709  0.25043971     0.02730
C314        C  0.05465953  0.63667255  0.24788298    -0.13420
C315        C  0.05775906  0.65833504  0.29077962     0.00230
C316        C  0.06233553  0.62982780  0.33497222    -0.11950
C317        C  0.05250209  0.57868510  0.34010775     0.02720
C318        C  0.04731082  0.55568429  0.29733605    -0.11370
H319        H  0.04935321  0.65924705  0.21405915     0.08310
H320        H  0.06408546  0.64769098  0.36792890     0.05840
H321        H  0.03855607  0.51591238  0.30078916     0.05690
C322        C  0.45165543  0.88824005  0.37945787     0.02730
C323        C  0.45491670  0.83766009  0.38265085    -0.13420
C324        C  0.45524056  0.81471193  0.34038610     0.00230
C325        C  0.44836056  0.84059172  0.29562711    -0.11950
C326        C  0.45039334  0.89173233  0.28966124     0.02720
C327        C  0.45107414  0.91616333  0.33221093    -0.11370
H328        H  0.46238794  0.81723859  0.41681618     0.08310
H329        H  0.44934172  0.82152546  0.26328360     0.05840
H330        H  0.45430076  0.95611310  0.32828433     0.05690
O331        O  0.08097561  0.88085316  0.99055628    -0.86890
O332        O  0.44077095  0.95631580  0.22620659    -0.87060
O333        O  0.10594251  0.91212701  0.14323209    -0.88720
O334        O  0.47130959  0.82545146  0.12527525    -0.87480
O335        O  0.41093775  0.84565640  0.07848367    -0.87070
O336        O  0.14045447  0.99335336  0.12279367    -0.88440
O337        O  0.48801201  0.89590294  0.20662195    -0.86920
O338        O  0.06010677  0.84439190  0.07166788    -0.86510
Zr339      Zr  0.02265618  0.90411357  0.11799030     2.84310
O340        O  0.44361357  0.92972733  0.12199809    -1.08480
O341        O  0.07843369  0.96109855  0.06173448    -1.09210
C342        C  0.07743947  0.84396897  0.02584607     1.06220
C343        C  0.46045057  0.91689059  0.23767047     1.06160
C344        C  0.14184063  0.94774217  0.14001427     1.09140
C345        C  0.43200019  0.81442236  0.10597409     1.06920
H346        H  0.03726485  0.97896964  0.17475757     0.32480
O347        O  0.02549200  0.98211732  0.14300862    -1.29430
H348        H  0.49290345  0.87661682  0.02788979     0.32150
O349        O  0.49612656  0.90829826  0.03949306    -1.31110
O350        O  0.42235318  0.59248582  0.13918455    -0.86880
O351        O  0.06040416  0.51460952  0.40406726    -0.88380
O352        O  0.07314564  0.56819322  0.16865257    -0.86960
O353        O  0.33937618  0.92768158  0.09510218    -0.87010
O354        O  0.42619000  0.90803520  0.45988943    -0.86720
O355        O  0.15950350  0.54677513  0.03547180    -0.86530
O356        O  0.02660744  0.64651740  0.00222282    -0.86900
O357        O  0.39416270  0.56035354  0.48281257    -0.86360
O358        O  0.08582655  0.62814729  0.05124118    -0.87430
O359        O  0.35840898  0.97967654  0.00470792    -0.86580
O360        O  0.49283410  0.54651240  0.20604286    -0.86980
O361        O  0.14194432  0.99768661  0.47654145    -0.86700
O362        O  0.50724107  0.92787915  0.42422825    -0.86350
O363        O  0.35838453  0.97428945  0.15556359    -0.86760
O364        O  0.44180117  0.62748725  0.05748521    -0.87060
O365        O  0.51120716  0.57414222  0.42167621    -0.88400
Zr366      Zr  0.44678035  0.50851009  0.14714800     2.83100
Zr367      Zr  0.05376251  0.96366712  0.48352590     2.83500
Zr368      Zr  0.08037909  0.53997192  0.08660982     2.84090
Zr369      Zr  0.41807696  0.93385870  0.04307103     2.83360
Zr370      Zr  0.47652525  0.56738550  0.01026455     2.84220
O371        O  0.47480142  0.98921698  0.98622933    -1.08970
O372        O  0.50198156  0.56428876  0.08915545    -1.08470
C373        C  0.42553052  0.62878660  0.10334885     1.06190
C374        C  0.03996648  0.55324862  0.39163672     1.08810
C375        C  0.03821712  0.56463255  0.20574354     1.06360
C376        C  0.32768714  0.94704628  0.13446142     1.06720
C377        C  0.46178053  0.91093871  0.42352823     1.06310
C378        C  0.17189998  0.52626521  0.99706108     1.05860
C379        C  0.06504322  0.65846236  0.02244731     1.06280
C380        C  0.35774944  0.52518648  0.48649998     1.05800
H381        H  0.07914889  0.56616733  0.48375654     0.32480
O382        O  0.05600797  0.54296598  0.00727577    -1.30070
H383        H  0.38943565  0.52409019  0.07219436     0.32500
O384        O  0.42122714  0.51232169  0.06901800    -1.31450
C385        C  0.03207966  0.77899798  0.32914000    -0.09560
C386        C  0.48018319  0.77141337  0.33629498     0.06640
C387        C  0.45482687  0.72847766  0.32456178    -0.03320
C388        C  0.48150819  0.69393684  0.30486645    -0.07770
C389        C  0.03338123  0.70162379  0.29724120     0.05750
C390        C  0.05884139  0.74414812  0.30980849    -0.02800
Br391      Br  0.12960682  0.75571322  0.30045365    -0.02490
H392        H  0.05164007  0.81321267  0.33632766     0.09670
H393        H  0.46183958  0.65983842  0.29751297     0.07680
Br394      Br  0.38407474  0.71625889  0.33473584    -0.02920
C395        C  0.26081749  0.96501154  0.35729521    -0.09560
C396        C  0.26668628  0.51694119  0.34904047     0.06640
C397        C  0.25291665  0.54206209  0.30634912    -0.03320
C398        C  0.23391832  0.51497104  0.27203375    -0.07770
C399        C  0.22849065  0.96303831  0.28012866     0.05750
C400        C  0.24164364  0.93795750  0.32313619    -0.02800
Br401      Br  0.23409511  0.86713316  0.33598160    -0.02490
H402        H  0.26914272  0.94555313  0.39152785     0.09670
H403        H  0.22572770  0.53438304  0.23772285     0.07680
Br404      Br  0.26009012  0.61288490  0.29382174    -0.02920
C405        C  0.24229893  0.71411691  0.10896934    -0.09560
C406        C  0.28926551  0.71972105  0.08207636     0.06640
C407        C  0.29764866  0.73949256  0.03124043    -0.03320
C408        C  0.25842361  0.75329630  0.00782421    -0.07770
C409        C  0.21151353  0.74817113  0.03490956     0.05750
C410        C  0.20317584  0.72814735  0.08570988    -0.02800
Br411      Br  0.13905017  0.71842947  0.12492414    -0.02490
H412        H  0.23642029  0.70011052  0.14824108     0.09670
H413        H  0.26434424  0.76765873  0.46864186     0.07680
Br414      Br  0.36223181  0.75042505  0.49289809    -0.02920
C415        C  0.09768729  0.79881208  0.01393565     0.02730
C416        C  0.14866049  0.79961458  0.51197223    -0.13420
C417        C  0.16962456  0.75614914  0.50930150     0.00230
C418        C  0.14172968  0.71350560  0.50165495    -0.11950
C419        C  0.09055801  0.70958450  0.00981606     0.02720
C420        C  0.06776308  0.75286363  0.01496442    -0.11370
H421        H  0.17103798  0.83237616  0.51894041     0.08310
H422        H  0.15954575  0.68033644  0.49974426     0.05840
H423        H  0.02794209  0.75040472  0.02259935     0.05690
C424        C  0.40333960  0.67337072  0.61367449     0.02730
C425        C  0.35322195  0.67155677  0.60940216    -0.13420
C426        C  0.33090189  0.71437271  0.60866430     0.00230
C427        C  0.35600292  0.75787757  0.61781076    -0.11950
C428        C  0.40697792  0.76283516  0.61625811     0.02720
C429        C  0.43132147  0.71989282  0.61511257    -0.11370
H430        H  0.33298999  0.63819560  0.60095635     0.08310
H431        H  0.33685351  0.79036711  0.61721285     0.05840
H432        H  0.47118184  0.72303882  0.61209500     0.05690
C433        C  0.18613865  0.93730201  0.66269658     0.02730
C434        C  0.18268413  0.93844991  0.71370405    -0.13420
C435        C  0.22481379  0.93834363  0.73689246     0.00230
C436        C  0.26974577  0.93266426  0.71079465    -0.11950
C437        C  0.27586146  0.93659215  0.65942445     0.02720
C438        C  0.23347139  0.93802414  0.63472569    -0.11370
H439        H  0.14835091  0.94496684  0.73435022     0.08310
H440        H  0.30197102  0.93326072  0.73000061     0.05840
H441        H  0.23750507  0.94261105  0.59461519     0.05690
C442        C  0.31292405  0.53668225  0.96536099     0.02730
C443        C  0.31528735  0.53947636  0.91397041    -0.13420
C444        C  0.27242974  0.54152576  0.89204052     0.00230
C445        C  0.22821901  0.54636186  0.92003856    -0.11950
C446        C  0.22325591  0.53828362  0.97145725     0.02720
C447        C  0.26613703  0.53435236  0.49482832    -0.11370
H448        H  0.34912575  0.53387934  0.89180398     0.08310
H449        H  0.19535164  0.54733901  0.90190036     0.05840
H450        H  0.26289382  0.52683588  0.53485861     0.05690
C451        C  0.05013045  0.58530709  0.75043971     0.02730
C452        C  0.05465955  0.63667255  0.74788298    -0.13420
C453        C  0.05775908  0.65833504  0.79077961     0.00230
C454        C  0.06233555  0.62982780  0.83497222    -0.11950
C455        C  0.05250208  0.57868510  0.84010776     0.02720
C456        C  0.04731081  0.55568429  0.79733605    -0.11370
H457        H  0.04935324  0.65924705  0.71405914     0.08310
H458        H  0.06408548  0.64769098  0.86792890     0.05840
H459        H  0.03855605  0.51591238  0.80078916     0.05690
C460        C  0.45165542  0.88824005  0.87945787     0.02730
C461        C  0.45491668  0.83766009  0.88265085    -0.13420
C462        C  0.45524054  0.81471193  0.84038611     0.00230
C463        C  0.44836054  0.84059172  0.79562711    -0.11950
C464        C  0.45039334  0.89173234  0.78966124     0.02720
C465        C  0.45107413  0.91616333  0.83221093    -0.11370
H466        H  0.46238791  0.81723859  0.91681619     0.08310
H467        H  0.44934170  0.82152546  0.76328360     0.05840
H468        H  0.45430076  0.95611310  0.82828433     0.05690
O469        O  0.08097562  0.88085315  0.49055628    -0.86890
O470        O  0.44077095  0.95631580  0.72620659    -0.87060
O471        O  0.10594252  0.91212701  0.64323208    -0.88720
O472        O  0.47130959  0.82545145  0.62527525    -0.87480
O473        O  0.41093776  0.84565639  0.57848367    -0.87070
O474        O  0.14045447  0.99335336  0.62279366    -0.88440
O475        O  0.48801200  0.89590294  0.70662195    -0.86920
O476        O  0.06010678  0.84439190  0.57166787    -0.86510
Zr477      Zr  0.02265618  0.90411357  0.61799030     2.84310
O478        O  0.44361358  0.92972733  0.62199808    -1.08480
O479        O  0.07843369  0.96109855  0.56173448    -1.09210
C480        C  0.07743947  0.84396896  0.52584607     1.06220
C481        C  0.46045057  0.91689058  0.73767047     1.06160
C482        C  0.14184064  0.94774217  0.64001426     1.09140
C483        C  0.43200019  0.81442235  0.60597408     1.06920
H484        H  0.03726485  0.97896964  0.67475756     0.32480
O485        O  0.02549201  0.98211732  0.64300861    -1.29430
H486        H  0.49290346  0.87661682  0.52788979     0.32150
O487        O  0.49612656  0.90829825  0.53949306    -1.31110
O488        O  0.42235319  0.59248582  0.63918454    -0.86880
O489        O  0.06040415  0.51460952  0.90406726    -0.88380
O490        O  0.07314565  0.56819322  0.66865257    -0.86960
O491        O  0.33937619  0.92768157  0.59510217    -0.87010
O492        O  0.42618999  0.90803520  0.95988943    -0.86720
O493        O  0.15950351  0.54677513  0.53547180    -0.86530
O494        O  0.02660744  0.64651739  0.50222281    -0.86900
O495        O  0.39416269  0.56035355  0.98281258    -0.86360
O496        O  0.08582655  0.62814729  0.55124117    -0.87430
O497        O  0.35840899  0.97967654  0.50470792    -0.86580
O498        O  0.49283410  0.54651240  0.70604286    -0.86980
O499        O  0.14194432  0.99768661  0.97654145    -0.86700
O500        O  0.50724106  0.92787916  0.92422825    -0.86350
O501        O  0.35838453  0.97428944  0.65556358    -0.86760
O502        O  0.44180118  0.62748724  0.55748520    -0.87060
O503        O  0.51120715  0.57414223  0.92167622    -0.88400
Zr504      Zr  0.44678035  0.50851009  0.64714800     2.83100
Zr505      Zr  0.05376251  0.96366712  0.98352590     2.83500
Zr506      Zr  0.08037909  0.53997192  0.58660982     2.84090
Zr507      Zr  0.41807697  0.93385869  0.54307103     2.83360
Zr508      Zr  0.47652525  0.56738549  0.51026454     2.84220
O509        O  0.47480143  0.98921697  0.48622933    -1.08970
O510        O  0.50198156  0.56428876  0.58915544    -1.08470
C511        C  0.42553053  0.62878659  0.60334884     1.06190
C512        C  0.03996647  0.55324863  0.89163673     1.08810
C513        C  0.03821712  0.56463254  0.70574354     1.06360
C514        C  0.32768715  0.94704628  0.63446142     1.06720
C515        C  0.46178052  0.91093871  0.92352824     1.06310
C516        C  0.17189999  0.52626521  0.49706108     1.05860
C517        C  0.06504322  0.65846236  0.52244730     1.06280
C518        C  0.35774943  0.52518648  0.98649999     1.05800
H519        H  0.07914888  0.56616733  0.98375654     0.32480
O520        O  0.05600797  0.54296598  0.50727577    -1.30070
H521        H  0.38943565  0.52409019  0.57219436     0.32500
O522        O  0.42122715  0.51232169  0.56901800    -1.31450
C523        C  0.03207970  0.77899798  0.82914000    -0.09560
C524        C  0.48018317  0.77141336  0.83629499     0.06640
C525        C  0.45482685  0.72847767  0.82456175    -0.03320
C526        C  0.48150818  0.69393686  0.80486641    -0.07770
C527        C  0.03338126  0.70162379  0.79724119     0.05750
C528        C  0.05884142  0.74414812  0.80980848    -0.02800
Br529      Br  0.12960685  0.75571322  0.80045364    -0.02490
H530        H  0.05164010  0.81321267  0.83632766     0.09670
H531        H  0.46183956  0.65983844  0.79751291     0.07680
Br532      Br  0.38407472  0.71625890  0.83473577    -0.02920
C533        C  0.26081748  0.96501152  0.85729521    -0.09560
C534        C  0.26668628  0.51694118  0.84904047     0.06640
C535        C  0.25291661  0.54206208  0.80634913    -0.03320
C536        C  0.23391829  0.51497102  0.77203377    -0.07770
C537        C  0.22849066  0.96303830  0.78012865     0.05750
C538        C  0.24164363  0.93795749  0.82313619    -0.02800
Br539      Br  0.23409508  0.86713315  0.83598160    -0.02490
H540        H  0.26914269  0.94555312  0.89152786     0.09670
H541        H  0.22572764  0.53438301  0.73772288     0.07680
Br542      Br  0.26009003  0.61288488  0.79382177    -0.02920
C543        C  0.24229894  0.71411688  0.60896927    -0.09560
C544        C  0.28926552  0.71972105  0.58207628     0.06640
C545        C  0.29764868  0.73949257  0.53124037    -0.03320
C546        C  0.25842361  0.75329631  0.50782415    -0.07770
C547        C  0.21151353  0.74817112  0.53490950     0.05750
C548        C  0.20317585  0.72814732  0.58570982    -0.02800
Br549      Br  0.13905019  0.71842942  0.62492408    -0.02490
H550        H  0.23642031  0.70011048  0.64824101     0.09670
H551        H  0.26434423  0.76765870  0.96864192     0.07680
Br552      Br  0.36223180  0.75042501  0.99289816    -0.02920
C553        C  0.59768729  0.29881207  0.51393563     0.02730
C554        C  0.64866048  0.29961458  0.01197223    -0.13420
C555        C  0.66962455  0.25614915  0.00930150     0.00230
C556        C  0.64172967  0.21350561  0.00165495    -0.11950
C557        C  0.59055799  0.20958449  0.50981602     0.02720
C558        C  0.56776307  0.25286363  0.51496443    -0.11370
H559        H  0.67103798  0.33237617  0.01894041     0.08310
H560        H  0.65954574  0.18033645  0.99974426     0.05840
H561        H  0.52794208  0.25040472  0.52259940     0.05690
C562        C  0.90333959  0.17337072  0.11367449     0.02730
C563        C  0.85322194  0.17155677  0.10940216    -0.13420
C564        C  0.83090188  0.21437271  0.10866431     0.00230
C565        C  0.85600291  0.25787757  0.11781075    -0.11950
C566        C  0.90697791  0.26283517  0.11625811     0.02720
C567        C  0.93132146  0.21989282  0.11511256    -0.11370
H568        H  0.83298999  0.13819560  0.10095636     0.08310
H569        H  0.83685350  0.29036712  0.11721284     0.05840
H570        H  0.97118184  0.22303883  0.11209500     0.05690
C571        C  0.68613865  0.43730202  0.16269659     0.02730
C572        C  0.68268413  0.43844992  0.21370406    -0.13420
C573        C  0.72481379  0.43834363  0.23689247     0.00230
C574        C  0.76974577  0.43266426  0.21079465    -0.11950
C575        C  0.77586146  0.43659216  0.15942445     0.02720
C576        C  0.73347139  0.43802415  0.13472570    -0.11370
H577        H  0.64835091  0.44496684  0.23435023     0.08310
H578        H  0.80197103  0.43326072  0.23000062     0.05840
H579        H  0.73750507  0.44261107  0.09461520     0.05690
C580        C  0.81292406  0.03668225  0.46536098     0.02730
C581        C  0.81528735  0.03947638  0.41397041    -0.13420
C582        C  0.77242974  0.04152578  0.39204052     0.00230
C583        C  0.72821901  0.04636188  0.42003856    -0.11950
C584        C  0.72325592  0.03828364  0.47145725     0.02720
C585        C  0.76613702  0.03435236  0.99482832    -0.11370
H586        H  0.84912575  0.03387936  0.39180397     0.08310
H587        H  0.69535164  0.04733904  0.40190036     0.05840
H588        H  0.76289381  0.02683590  0.03485861     0.05690
C589        C  0.55013044  0.08530709  0.25043971     0.02730
C590        C  0.55465954  0.13667255  0.24788298    -0.13420
C591        C  0.55775906  0.15833504  0.29077962     0.00230
C592        C  0.56233553  0.12982780  0.33497222    -0.11950
C593        C  0.55250208  0.07868510  0.34010775     0.02720
C594        C  0.54731081  0.05568429  0.29733605    -0.11370
H595        H  0.54935322  0.15924706  0.21405915     0.08310
H596        H  0.56408547  0.14769098  0.36792890     0.05840
H597        H  0.53855606  0.01591238  0.30078915     0.05690
C598        C  0.95165543  0.38824005  0.37945787     0.02730
C599        C  0.95491668  0.33766009  0.38265085    -0.13420
C600        C  0.95524054  0.31471193  0.34038611     0.00230
C601        C  0.94836053  0.34059172  0.29562711    -0.11950
C602        C  0.95039333  0.39173233  0.28966124     0.02720
C603        C  0.95107413  0.41616333  0.33221093    -0.11370
H604        H  0.96238792  0.31723859  0.41681618     0.08310
H605        H  0.94934169  0.32152546  0.26328360     0.05840
H606        H  0.95430077  0.45611310  0.32828433     0.05690
O607        O  0.58097561  0.38085316  0.99055628    -0.86890
O608        O  0.94077095  0.45631581  0.22620659    -0.87060
O609        O  0.60594252  0.41212702  0.14323209    -0.88720
O610        O  0.97130958  0.32545146  0.12527525    -0.87480
O611        O  0.91093775  0.34565640  0.07848366    -0.87070
O612        O  0.64045447  0.49335337  0.12279367    -0.88440
O613        O  0.98801200  0.39590294  0.20662195    -0.86920
O614        O  0.56010678  0.34439191  0.07166787    -0.86510
Zr615      Zr  0.52265619  0.40411358  0.11799030     2.84310
O616        O  0.94361357  0.42972733  0.12199809    -1.08480
O617        O  0.57843369  0.46109856  0.06173448    -1.09210
C618        C  0.57743947  0.34396898  0.02584607     1.06220
C619        C  0.96045056  0.41689058  0.23767047     1.06160
C620        C  0.64184064  0.44774219  0.14001427     1.09140
C621        C  0.93200018  0.31442236  0.10597408     1.06920
H622        H  0.53726485  0.47896965  0.17475757     0.32480
O623        O  0.52549201  0.48211733  0.14300862    -1.29430
H624        H  0.99290345  0.37661682  0.02788979     0.32150
O625        O  0.99612655  0.40829825  0.03949306    -1.31110
O626        O  0.92235318  0.09248582  0.13918454    -0.86880
O627        O  0.56040416  0.01460952  0.40406726    -0.88380
O628        O  0.57314563  0.06819323  0.16865256    -0.86960
O629        O  0.83937618  0.42768158  0.09510217    -0.87010
O630        O  0.92619000  0.40803520  0.45988942    -0.86720
O631        O  0.65950350  0.04677515  0.03547180    -0.86530
O632        O  0.52660743  0.14651741  0.00222281    -0.86900
O633        O  0.89416269  0.06035354  0.48281257    -0.86360
O634        O  0.58582654  0.12814731  0.05124117    -0.87430
O635        O  0.85840898  0.47967655  0.00470792    -0.86580
O636        O  0.99283410  0.04651240  0.20604286    -0.86980
O637        O  0.64194433  0.49768661  0.47654146    -0.86700
O638        O  0.00724107  0.42787915  0.42422825    -0.86350
O639        O  0.85838453  0.47428945  0.15556359    -0.86760
O640        O  0.94180118  0.12748725  0.05748520    -0.87060
O641        O  0.01120716  0.07414222  0.42167621    -0.88400
Zr642      Zr  0.94678035  0.00851009  0.14714800     2.83100
Zr643      Zr  0.55376252  0.46366712  0.48352590     2.83500
Zr644      Zr  0.58037908  0.03997193  0.08660981     2.84090
Zr645      Zr  0.91807696  0.43385870  0.04307103     2.83360
Zr646      Zr  0.97652525  0.06738550  0.01026454     2.84220
O647        O  0.97480143  0.48921698  0.98622933    -1.08970
O648        O  0.00198156  0.06428876  0.08915544    -1.08470
C649        C  0.92553052  0.12878660  0.10334884     1.06190
C650        C  0.53996647  0.05324862  0.39163672     1.08810
C651        C  0.53821711  0.06463255  0.20574354     1.06360
C652        C  0.82768714  0.44704629  0.13446142     1.06720
C653        C  0.96178053  0.41093871  0.42352823     1.06310
C654        C  0.67189998  0.02626522  0.99706107     1.05860
C655        C  0.56504321  0.15846237  0.02244730     1.06280
C656        C  0.85774943  0.02518647  0.48649998     1.05800
H657        H  0.57914888  0.06616733  0.48375654     0.32480
O658        O  0.55600796  0.04296599  0.00727577    -1.30070
H659        H  0.88943565  0.02409019  0.07219436     0.32500
O660        O  0.92122714  0.01232169  0.06901800    -1.31450
C661        C  0.53207968  0.27899798  0.32914002    -0.09560
C662        C  0.98018317  0.27141336  0.33629498     0.06640
C663        C  0.95482684  0.22847766  0.32456177    -0.03320
C664        C  0.98150817  0.19393684  0.30486644    -0.07770
C665        C  0.53338125  0.20162379  0.29724120     0.05750
C666        C  0.55884140  0.24414812  0.30980851    -0.02800
Br667      Br  0.62960683  0.25571321  0.30045369    -0.02490
H668        H  0.55164008  0.31321266  0.33632769     0.09670
H669        H  0.96183955  0.15983842  0.29751295     0.07680
Br670      Br  0.88407471  0.21625889  0.33473581    -0.02920
C671        C  0.76081756  0.46501154  0.35729518    -0.09560
C672        C  0.76668627  0.01694121  0.34904047     0.06640
C673        C  0.75291663  0.04206211  0.30634913    -0.03320
C674        C  0.73391830  0.01497105  0.27203376    -0.07770
C675        C  0.72849066  0.46303829  0.28012867     0.05750
C676        C  0.74164370  0.43795750  0.32313617    -0.02800
Br677      Br  0.73409525  0.36713315  0.33598157    -0.02490
H678        H  0.76914282  0.44555314  0.39152781     0.09670
H679        H  0.72572767  0.03438305  0.23772286     0.07680
Br680      Br  0.76009007  0.11288491  0.29382176    -0.02920
C681        C  0.74229893  0.21411688  0.10896927    -0.09560
C682        C  0.78926551  0.21972104  0.08207629     0.06640
C683        C  0.79764866  0.23949256  0.03124037    -0.03320
C684        C  0.75842360  0.25329630  0.00782415    -0.07770
C685        C  0.71151352  0.24817112  0.03490951     0.05750
C686        C  0.70317584  0.22814733  0.08570982    -0.02800
Br687      Br  0.63905018  0.21842944  0.12492409    -0.02490
H688        H  0.73642030  0.20011049  0.14824102     0.09670
H689        H  0.76434423  0.26765873  0.46864181     0.07680
Br690      Br  0.86223181  0.25042506  0.49289803    -0.02920
C691        C  0.59768729  0.29881208  0.01393564     0.02730
C692        C  0.64866048  0.29961458  0.51197220    -0.13420
C693        C  0.66962455  0.25614914  0.50930146     0.00230
C694        C  0.64172967  0.21350560  0.50165491    -0.11950
C695        C  0.59055799  0.20958450  0.00981604     0.02720
C696        C  0.56776307  0.25286364  0.01496442    -0.11370
H697        H  0.67103799  0.33237616  0.51894037     0.08310
H698        H  0.65954573  0.18033644  0.49974420     0.05840
H699        H  0.52794208  0.25040473  0.02259937     0.05690
C700        C  0.90333960  0.17337072  0.61367447     0.02730
C701        C  0.85322195  0.17155677  0.60940211    -0.13420
C702        C  0.83090189  0.21437271  0.60866424     0.00230
C703        C  0.85600292  0.25787757  0.61781070    -0.11950
C704        C  0.90697791  0.26283516  0.61625809     0.02720
C705        C  0.93132146  0.21989281  0.61511256    -0.11370
H706        H  0.83299000  0.13819560  0.60095630     0.08310
H707        H  0.83685351  0.29036712  0.61721278     0.05840
H708        H  0.97118183  0.22303882  0.61209502     0.05690
C709        C  0.68613866  0.43730201  0.66269659     0.02730
C710        C  0.68268413  0.43844990  0.71370405    -0.13420
C711        C  0.72481380  0.43834362  0.73689246     0.00230
C712        C  0.76974578  0.43266426  0.71079465    -0.11950
C713        C  0.77586146  0.43659216  0.65942445     0.02720
C714        C  0.73347139  0.43802414  0.63472570    -0.11370
H715        H  0.64835091  0.44496683  0.73435023     0.08310
H716        H  0.80197103  0.43326071  0.73000061     0.05840
H717        H  0.73750507  0.44261106  0.59461519     0.05690
C718        C  0.81292405  0.03668226  0.96536099     0.02730
C719        C  0.81528735  0.03947637  0.91397041    -0.13420
C720        C  0.77242974  0.04152576  0.89204052     0.00230
C721        C  0.72821901  0.04636187  0.92003856    -0.11950
C722        C  0.72325591  0.03828363  0.97145725     0.02720
C723        C  0.76613702  0.03435236  0.49482832    -0.11370
H724        H  0.84912574  0.03387934  0.89180398     0.08310
H725        H  0.69535164  0.04733902  0.90190036     0.05840
H726        H  0.76289381  0.02683588  0.53485861     0.05690
C727        C  0.55013043  0.08530710  0.75043971     0.02730
C728        C  0.55465953  0.13667256  0.74788297    -0.13420
C729        C  0.55775905  0.15833505  0.79077961     0.00230
C730        C  0.56233552  0.12982781  0.83497222    -0.11950
C731        C  0.55250207  0.07868511  0.84010775     0.02720
C732        C  0.54731080  0.05568430  0.79733605    -0.11370
H733        H  0.54935321  0.15924706  0.71405914     0.08310
H734        H  0.56408545  0.14769099  0.86792890     0.05840
H735        H  0.53855605  0.01591239  0.80078916     0.05690
C736        C  0.95165542  0.38824005  0.87945787     0.02730
C737        C  0.95491669  0.33766008  0.88265085    -0.13420
C738        C  0.95524055  0.31471193  0.84038611     0.00230
C739        C  0.94836055  0.34059172  0.79562711    -0.11950
C740        C  0.95039334  0.39173233  0.78966124     0.02720
C741        C  0.95107413  0.41616333  0.83221093    -0.11370
H742        H  0.96238793  0.31723859  0.91681619     0.08310
H743        H  0.94934172  0.32152546  0.76328361     0.05840
H744        H  0.95430076  0.45611309  0.82828433     0.05690
O745        O  0.58097562  0.38085316  0.49055628    -0.86890
O746        O  0.94077096  0.45631580  0.72620659    -0.87060
O747        O  0.60594252  0.41212701  0.64323209    -0.88720
O748        O  0.97130958  0.32545145  0.62527525    -0.87480
O749        O  0.91093776  0.34565640  0.57848366    -0.87070
O750        O  0.64045447  0.49335336  0.62279367    -0.88440
O751        O  0.98801201  0.39590293  0.70662195    -0.86920
O752        O  0.56010678  0.34439190  0.57166787    -0.86510
Zr753      Zr  0.52265619  0.40411357  0.61799030     2.84310
O754        O  0.94361358  0.42972733  0.62199808    -1.08480
O755        O  0.57843369  0.46109855  0.56173449    -1.09210
C756        C  0.57743947  0.34396897  0.52584607     1.06220
C757        C  0.96045057  0.41689058  0.73767047     1.06160
C758        C  0.64184064  0.44774217  0.64001426     1.09140
C759        C  0.93200019  0.31442235  0.60597407     1.06920
H760        H  0.53726485  0.47896964  0.67475757     0.32480
O761        O  0.52549201  0.48211732  0.64300862    -1.29430
H762        H  0.99290346  0.37661682  0.52788979     0.32150
O763        O  0.99612656  0.40829825  0.53949306    -1.31110
O764        O  0.92235319  0.09248582  0.63918454    -0.86880
O765        O  0.56040414  0.01460953  0.90406726    -0.88380
O766        O  0.57314564  0.06819323  0.66865257    -0.86960
O767        O  0.83937619  0.42768158  0.59510217    -0.87010
O768        O  0.92618999  0.40803520  0.95988943    -0.86720
O769        O  0.65950350  0.04677514  0.53547180    -0.86530
O770        O  0.52660743  0.14651739  0.50222281    -0.86900
O771        O  0.89416269  0.06035355  0.98281257    -0.86360
O772        O  0.58582654  0.12814730  0.55124116    -0.87430
O773        O  0.85840899  0.47967654  0.50470792    -0.86580
O774        O  0.99283410  0.04651239  0.70604286    -0.86980
O775        O  0.64194432  0.49768662  0.97654145    -0.86700
O776        O  0.00724107  0.42787915  0.92422825    -0.86350
O777        O  0.85838454  0.47428945  0.65556359    -0.86760
O778        O  0.94180118  0.12748724  0.55748520    -0.87060
O779        O  0.01120716  0.07414222  0.92167621    -0.88400
Zr780      Zr  0.94678035  0.00851008  0.64714800     2.83100
Zr781      Zr  0.55376251  0.46366713  0.98352590     2.83500
Zr782      Zr  0.58037909  0.03997193  0.58660981     2.84090
Zr783      Zr  0.91807697  0.43385870  0.54307103     2.83360
Zr784      Zr  0.97652525  0.06738548  0.51026454     2.84220
O785        O  0.97480144  0.48921697  0.48622933    -1.08970
O786        O  0.00198156  0.06428875  0.58915544    -1.08470
C787        C  0.92553053  0.12878659  0.60334884     1.06190
C788        C  0.53996646  0.05324863  0.89163672     1.08810
C789        C  0.53821711  0.06463255  0.70574354     1.06360
C790        C  0.82768715  0.44704628  0.63446142     1.06720
C791        C  0.96178052  0.41093871  0.92352824     1.06310
C792        C  0.67189998  0.02626521  0.49706108     1.05860
C793        C  0.56504321  0.15846236  0.52244730     1.06280
C794        C  0.85774943  0.02518648  0.98649999     1.05800
H795        H  0.57914887  0.06616734  0.98375654     0.32480
O796        O  0.55600797  0.04296598  0.50727577    -1.30070
H797        H  0.88943565  0.02409018  0.57219436     0.32500
O798        O  0.92122714  0.01232169  0.56901800    -1.31450
C799        C  0.53207966  0.27899798  0.82914002    -0.09560
C800        C  0.98018318  0.27141336  0.83629499     0.06640
C801        C  0.95482686  0.22847766  0.82456177    -0.03320
C802        C  0.98150819  0.19393684  0.80486643    -0.07770
C803        C  0.53338123  0.20162380  0.79724119     0.05750
C804        C  0.55884139  0.24414813  0.80980850    -0.02800
Br805      Br  0.62960682  0.25571322  0.80045367    -0.02490
H806        H  0.55164007  0.31321267  0.83632769     0.09670
H807        H  0.96183957  0.15983843  0.79751294     0.07680
Br808      Br  0.88407473  0.21625889  0.83473581    -0.02920
C809        C  0.76081751  0.46501153  0.85729520    -0.09560
C810        C  0.76668628  0.01694118  0.84904047     0.06640
C811        C  0.75291665  0.04206209  0.80634912    -0.03320
C812        C  0.73391832  0.01497103  0.77203375    -0.07770
C813        C  0.72849066  0.46303829  0.78012866     0.05750
C814        C  0.74164366  0.43795749  0.82313618    -0.02800
Br815      Br  0.73409515  0.36713314  0.83598159    -0.02490
H816        H  0.76914274  0.44555312  0.89152784     0.09670
H817        H  0.72572770  0.03438303  0.73772286     0.07680
Br818      Br  0.76009011  0.11288489  0.79382174    -0.02920
C819        C  0.74229895  0.21411686  0.60896921    -0.09560
C820        C  0.78926552  0.21972104  0.58207622     0.06640
C821        C  0.79764867  0.23949257  0.53124030    -0.03320
C822        C  0.75842361  0.25329631  0.50782410    -0.07770
C823        C  0.71151353  0.24817111  0.53490945     0.05750
C824        C  0.70317585  0.22814730  0.58570976    -0.02800
Br825      Br  0.63905019  0.21842939  0.62492403    -0.02490
H826        H  0.73642031  0.20011046  0.64824095     0.09670
H827        H  0.76434422  0.26765871  0.96864186     0.07680
Br828      Br  0.86223180  0.25042502  0.99289809    -0.02920
C829        C  0.59768729  0.79881207  0.51393564     0.02730
C830        C  0.64866048  0.79961459  0.01197226    -0.13420
C831        C  0.66962455  0.75614915  0.00930155     0.00230
C832        C  0.64172968  0.71350561  0.00165500    -0.11950
C833        C  0.59055800  0.70958449  0.50981603     0.02720
C834        C  0.56776307  0.75286363  0.51496443    -0.11370
H835        H  0.67103797  0.83237617  0.01894044     0.08310
H836        H  0.65954575  0.68033645  0.99974431     0.05840
H837        H  0.52794208  0.75040472  0.52259939     0.05690
C838        C  0.90333959  0.67337072  0.11367450     0.02730
C839        C  0.85322193  0.67155677  0.10940220    -0.13420
C840        C  0.83090187  0.71437271  0.10866437     0.00230
C841        C  0.85600291  0.75787757  0.11781081    -0.11950
C842        C  0.90697791  0.76283517  0.11625813     0.02720
C843        C  0.93132146  0.71989282  0.11511256    -0.11370
H844        H  0.83298997  0.63819560  0.10095641     0.08310
H845        H  0.83685350  0.79036711  0.11721291     0.05840
H846        H  0.97118184  0.72303883  0.11209498     0.05690
C847        C  0.68613865  0.93730203  0.16269659     0.02730
C848        C  0.68268412  0.93844993  0.21370405    -0.13420
C849        C  0.72481379  0.93834364  0.23689246     0.00230
C850        C  0.76974577  0.93266428  0.21079465    -0.11950
C851        C  0.77586145  0.93659217  0.15942445     0.02720
C852        C  0.73347139  0.93802415  0.13472570    -0.11370
H853        H  0.64835090  0.94496685  0.23435022     0.08310
H854        H  0.80197102  0.93326074  0.23000062     0.05840
H855        H  0.73750506  0.94261106  0.09461519     0.05690
C856        C  0.81292406  0.53668226  0.46536099     0.02730
C857        C  0.81528736  0.53947638  0.41397041    -0.13420
C858        C  0.77242975  0.54152577  0.39204052     0.00230
C859        C  0.72821902  0.54636187  0.42003856    -0.11950
C860        C  0.72325592  0.53828363  0.47145725     0.02720
C861        C  0.76613702  0.53435237  0.99482832    -0.11370
H862        H  0.84912575  0.53387936  0.39180397     0.08310
H863        H  0.69535165  0.54733903  0.40190036     0.05840
H864        H  0.76289381  0.52683590  0.03485861     0.05690
C865        C  0.55013044  0.58530709  0.25043972     0.02730
C866        C  0.55465954  0.63667255  0.24788298    -0.13420
C867        C  0.55775907  0.65833504  0.29077962     0.00230
C868        C  0.56233554  0.62982780  0.33497222    -0.11950
C869        C  0.55250209  0.57868510  0.34010776     0.02720
C870        C  0.54731081  0.55568429  0.29733605    -0.11370
H871        H  0.54935322  0.65924706  0.21405915     0.08310
H872        H  0.56408548  0.64769098  0.36792890     0.05840
H873        H  0.53855606  0.51591238  0.30078916     0.05690
C874        C  0.95165542  0.88824005  0.37945787     0.02730
C875        C  0.95491668  0.83766008  0.38265085    -0.13420
C876        C  0.95524054  0.81471193  0.34038611     0.00230
C877        C  0.94836054  0.84059172  0.29562711    -0.11950
C878        C  0.95039333  0.89173233  0.28966124     0.02720
C879        C  0.95107413  0.91616333  0.33221093    -0.11370
H880        H  0.96238792  0.81723859  0.41681618     0.08310
H881        H  0.94934170  0.82152546  0.26328360     0.05840
H882        H  0.95430076  0.95611309  0.32828433     0.05690
O883        O  0.58097561  0.88085316  0.99055628    -0.86890
O884        O  0.94077095  0.95631580  0.22620659    -0.87060
O885        O  0.60594252  0.91212703  0.14323208    -0.88720
O886        O  0.97130958  0.82545145  0.12527525    -0.87480
O887        O  0.91093775  0.84565639  0.07848367    -0.87070
O888        O  0.64045446  0.99335338  0.12279366    -0.88440
O889        O  0.98801200  0.89590294  0.20662195    -0.86920
O890        O  0.56010678  0.84439191  0.07166787    -0.86510
Zr891      Zr  0.52265618  0.90411358  0.11799030     2.84310
O892        O  0.94361357  0.92972733  0.12199809    -1.08480
O893        O  0.57843369  0.96109856  0.06173448    -1.09210
C894        C  0.57743946  0.84396898  0.02584606     1.06220
C895        C  0.96045056  0.91689058  0.23767047     1.06160
C896        C  0.64184063  0.94774219  0.14001426     1.09140
C897        C  0.93200018  0.81442235  0.10597408     1.06920
H898        H  0.53726485  0.97896965  0.17475756     0.32480
O899        O  0.52549201  0.98211733  0.14300861    -1.29430
H900        H  0.99290345  0.87661682  0.02788979     0.32150
O901        O  0.99612656  0.90829825  0.03949306    -1.31110
O902        O  0.92235318  0.59248582  0.13918455    -0.86880
O903        O  0.56040416  0.51460953  0.40406726    -0.88380
O904        O  0.57314564  0.56819323  0.16865257    -0.86960
O905        O  0.83937618  0.92768158  0.09510217    -0.87010
O906        O  0.92619000  0.90803520  0.45988943    -0.86720
O907        O  0.65950350  0.54677515  0.03547180    -0.86530
O908        O  0.52660744  0.64651740  0.00222282    -0.86900
O909        O  0.89416270  0.56035354  0.48281257    -0.86360
O910        O  0.58582655  0.62814730  0.05124118    -0.87430
O911        O  0.85840898  0.97967655  0.00470792    -0.86580
O912        O  0.99283410  0.54651240  0.20604286    -0.86980
O913        O  0.64194432  0.99768661  0.47654145    -0.86700
O914        O  0.00724107  0.92787915  0.42422825    -0.86350
O915        O  0.85838453  0.97428945  0.15556359    -0.86760
O916        O  0.94180118  0.62748725  0.05748520    -0.87060
O917        O  0.01120717  0.57414222  0.42167621    -0.88400
Zr918      Zr  0.94678035  0.50851009  0.14714800     2.83100
Zr919      Zr  0.55376251  0.96366712  0.48352590     2.83500
Zr920      Zr  0.58037909  0.53997193  0.08660982     2.84090
Zr921      Zr  0.91807696  0.93385870  0.04307103     2.83360
Zr922      Zr  0.97652525  0.56738550  0.01026455     2.84220
O923        O  0.97480143  0.98921698  0.98622933    -1.08970
O924        O  0.00198156  0.56428876  0.08915544    -1.08470
C925        C  0.92553052  0.62878660  0.10334885     1.06190
C926        C  0.53996648  0.55324863  0.39163673     1.08810
C927        C  0.53821712  0.56463255  0.20574355     1.06360
C928        C  0.82768714  0.94704629  0.13446142     1.06720
C929        C  0.96178052  0.91093871  0.42352823     1.06310
C930        C  0.67189998  0.52626522  0.99706108     1.05860
C931        C  0.56504322  0.65846237  0.02244731     1.06280
C932        C  0.85774944  0.52518648  0.48649999     1.05800
H933        H  0.57914888  0.56616733  0.48375654     0.32480
O934        O  0.55600796  0.54296599  0.00727577    -1.30070
H935        H  0.88943565  0.52409019  0.07219436     0.32500
O936        O  0.92122714  0.51232170  0.06901800    -1.31450
C937        C  0.53207968  0.77899799  0.32913999    -0.09560
C938        C  0.98018317  0.77141336  0.33629499     0.06640
C939        C  0.95482685  0.72847766  0.32456177    -0.03320
C940        C  0.98150818  0.69393684  0.30486644    -0.07770
C941        C  0.53338125  0.70162379  0.29724120     0.05750
C942        C  0.55884141  0.74414813  0.30980848    -0.02800
Br943      Br  0.62960684  0.75571323  0.30045362    -0.02490
H944        H  0.55164009  0.81321269  0.33632763     0.09670
H945        H  0.96183956  0.65983842  0.29751295     0.07680
Br946      Br  0.88407472  0.71625889  0.33473580    -0.02920
C947        C  0.76081753  0.96501155  0.35729519    -0.09560
C948        C  0.76668628  0.51694120  0.34904047     0.06640
C949        C  0.75291662  0.54206210  0.30634913    -0.03320
C950        C  0.73391829  0.51497103  0.27203377    -0.07770
C951        C  0.72849065  0.96303831  0.28012866     0.05750
C952        C  0.74164367  0.93795751  0.32313617    -0.02800
Br953      Br  0.73409518  0.86713316  0.33598157    -0.02490
H954        H  0.76914278  0.94555315  0.39152782     0.09670
H955        H  0.72572764  0.53438303  0.23772288     0.07680
Br956      Br  0.76009003  0.61288490  0.29382177    -0.02920
C957        C  0.74229892  0.71411691  0.10896934    -0.09560
C958        C  0.78926550  0.71972105  0.08207635     0.06640
C959        C  0.79764866  0.73949255  0.03124043    -0.03320
C960        C  0.75842360  0.75329630  0.00782421    -0.07770
C961        C  0.71151352  0.74817113  0.03490956     0.05750
C962        C  0.70317583  0.72814736  0.08570988    -0.02800
Br963      Br  0.63905017  0.71842949  0.12492414    -0.02490
H964        H  0.73642029  0.70011053  0.14824108     0.09670
H965        H  0.76434423  0.76765872  0.46864182     0.07680
Br966      Br  0.86223181  0.75042504  0.49289805    -0.02920
C967        C  0.59768729  0.79881209  0.01393564     0.02730
C968        C  0.64866049  0.79961458  0.51197220    -0.13420
C969        C  0.66962456  0.75614914  0.50930147     0.00230
C970        C  0.64172967  0.71350561  0.50165492    -0.11950
C971        C  0.59055800  0.70958450  0.00981605     0.02720
C972        C  0.56776308  0.75286364  0.01496442    -0.11370
H973        H  0.67103799  0.83237616  0.51894038     0.08310
H974        H  0.65954574  0.68033644  0.49974422     0.05840
H975        H  0.52794208  0.75040473  0.02259935     0.05690
C976        C  0.90333960  0.67337072  0.61367448     0.02730
C977        C  0.85322195  0.67155677  0.60940213    -0.13420
C978        C  0.83090189  0.71437270  0.60866426     0.00230
C979        C  0.85600292  0.75787757  0.61781072    -0.11950
C980        C  0.90697791  0.76283516  0.61625809     0.02720
C981        C  0.93132146  0.71989281  0.61511257    -0.11370
H982        H  0.83299000  0.63819560  0.60095631     0.08310
H983        H  0.83685351  0.79036711  0.61721280     0.05840
H984        H  0.97118184  0.72303882  0.61209502     0.05690
C985        C  0.68613865  0.93730201  0.66269659     0.02730
C986        C  0.68268413  0.93844991  0.71370406    -0.13420
C987        C  0.72481379  0.93834362  0.73689246     0.00230
C988        C  0.76974577  0.93266425  0.71079465    -0.11950
C989        C  0.77586146  0.93659215  0.65942445     0.02720
C990        C  0.73347139  0.93802414  0.63472570    -0.11370
H991        H  0.64835091  0.94496683  0.73435023     0.08310
H992        H  0.80197103  0.93326071  0.73000061     0.05840
H993        H  0.73750507  0.94261106  0.59461519     0.05690
C994        C  0.81292406  0.53668226  0.96536098     0.02730
C995        C  0.81528735  0.53947637  0.91397041    -0.13420
C996        C  0.77242974  0.54152576  0.89204052     0.00230
C997        C  0.72821901  0.54636187  0.92003856    -0.11950
C998        C  0.72325591  0.53828364  0.97145725     0.02720
C999        C  0.76613703  0.53435236  0.49482832    -0.11370
H1000       H  0.84912574  0.53387934  0.89180398     0.08310
H1001       H  0.69535164  0.54733902  0.90190036     0.05840
H1002       H  0.76289382  0.52683588  0.53485861     0.05690
C1003       C  0.55013044  0.58530710  0.75043972     0.02730
C1004       C  0.55465953  0.63667256  0.74788298    -0.13420
C1005       C  0.55775905  0.65833504  0.79077962     0.00230
C1006       C  0.56233552  0.62982781  0.83497222    -0.11950
C1007       C  0.55250207  0.57868511  0.84010776     0.02720
C1008       C  0.54731081  0.55568430  0.79733605    -0.11370
H1009       H  0.54935321  0.65924706  0.71405914     0.08310
H1010       H  0.56408545  0.64769099  0.86792890     0.05840
H1011       H  0.53855606  0.51591239  0.80078916     0.05690
C1012       C  0.95165543  0.88824004  0.87945787     0.02730
C1013       C  0.95491670  0.83766008  0.88265085    -0.13420
C1014       C  0.95524057  0.81471193  0.84038611     0.00230
C1015       C  0.94836057  0.84059172  0.79562711    -0.11950
C1016       C  0.95039334  0.89173233  0.78966124     0.02720
C1017       C  0.95107413  0.91616332  0.83221094    -0.11370
H1018       H  0.96238795  0.81723859  0.91681618     0.08310
H1019       H  0.94934173  0.82152545  0.76328360     0.05840
H1020       H  0.95430075  0.95611309  0.82828433     0.05690
O1021       O  0.58097562  0.88085316  0.49055628    -0.86890
O1022       O  0.94077095  0.95631580  0.72620659    -0.87060
O1023       O  0.60594252  0.91212702  0.64323209    -0.88720
O1024       O  0.97130958  0.82545145  0.62527525    -0.87480
O1025       O  0.91093776  0.84565639  0.57848366    -0.87070
O1026       O  0.64045447  0.99335337  0.62279367    -0.88440
O1027       O  0.98801201  0.89590293  0.70662195    -0.86920
O1028       O  0.56010678  0.84439190  0.57166787    -0.86510
Zr1029     Zr  0.52265619  0.90411357  0.61799030     2.84310
O1030       O  0.94361358  0.92972733  0.62199808    -1.08480
O1031       O  0.57843369  0.96109855  0.56173448    -1.09210
C1032       C  0.57743947  0.84396897  0.52584607     1.06220
C1033       C  0.96045057  0.91689058  0.73767047     1.06160
C1034       C  0.64184064  0.94774218  0.64001426     1.09140
C1035       C  0.93200019  0.81442235  0.60597407     1.06920
H1036       H  0.53726485  0.97896965  0.67475757     0.32480
O1037       O  0.52549201  0.98211732  0.64300861    -1.29430
H1038       H  0.99290346  0.87661681  0.52788979     0.32150
O1039       O  0.99612656  0.90829825  0.53949306    -1.31110
O1040       O  0.92235319  0.59248582  0.63918454    -0.86880
O1041       O  0.56040415  0.51460953  0.90406726    -0.88380
O1042       O  0.57314564  0.56819323  0.66865257    -0.86960
O1043       O  0.83937619  0.92768157  0.59510217    -0.87010
O1044       O  0.92619000  0.90803520  0.95988943    -0.86720
O1045       O  0.65950351  0.54677514  0.53547180    -0.86530
O1046       O  0.52660743  0.64651739  0.50222281    -0.86900
O1047       O  0.89416269  0.56035355  0.98281257    -0.86360
O1048       O  0.58582655  0.62814730  0.55124117    -0.87430
O1049       O  0.85840898  0.97967654  0.50470792    -0.86580
O1050       O  0.99283411  0.54651239  0.70604286    -0.86980
O1051       O  0.64194431  0.99768662  0.97654145    -0.86700
O1052       O  0.00724107  0.92787915  0.92422825    -0.86350
O1053       O  0.85838453  0.97428944  0.65556359    -0.86760
O1054       O  0.94180119  0.62748724  0.55748520    -0.87060
O1055       O  0.01120716  0.57414223  0.92167621    -0.88400
Zr1056     Zr  0.94678035  0.50851008  0.64714800     2.83100
Zr1057     Zr  0.55376250  0.96366713  0.98352590     2.83500
Zr1058     Zr  0.58037909  0.53997193  0.58660982     2.84090
Zr1059     Zr  0.91807697  0.93385870  0.54307103     2.83360
Zr1060     Zr  0.97652526  0.56738549  0.51026454     2.84220
O1061       O  0.97480143  0.98921697  0.48622933    -1.08970
O1062       O  0.00198156  0.56428875  0.58915544    -1.08470
C1063       C  0.92553053  0.62878659  0.60334884     1.06190
C1064       C  0.53996646  0.55324863  0.89163673     1.08810
C1065       C  0.53821712  0.56463255  0.70574355     1.06360
C1066       C  0.82768715  0.94704628  0.63446142     1.06720
C1067       C  0.96178052  0.91093871  0.92352824     1.06310
C1068       C  0.67189999  0.52626521  0.49706108     1.05860
C1069       C  0.56504321  0.65846236  0.52244730     1.06280
C1070       C  0.85774943  0.52518648  0.98649999     1.05800
H1071       H  0.57914888  0.56616734  0.98375654     0.32480
O1072       O  0.55600797  0.54296598  0.50727577    -1.30070
H1073       H  0.88943566  0.52409019  0.57219436     0.32500
O1074       O  0.92122715  0.51232169  0.56901800    -1.31450
C1075       C  0.53207966  0.77899798  0.82914002    -0.09560
C1076       C  0.98018321  0.77141336  0.83629499     0.06640
C1077       C  0.95482688  0.72847766  0.82456177    -0.03320
C1078       C  0.98150821  0.69393684  0.80486643    -0.07770
C1079       C  0.53338123  0.70162380  0.79724119     0.05750
C1080       C  0.55884139  0.74414813  0.80980850    -0.02800
Br1081     Br  0.62960681  0.75571321  0.80045369    -0.02490
H1082       H  0.55164006  0.81321266  0.83632770     0.09670
H1083       H  0.96183959  0.65983843  0.79751294     0.07680
Br1084     Br  0.88407475  0.71625889  0.83473581    -0.02920
C1085       C  0.76081752  0.96501153  0.85729520    -0.09560
C1086       C  0.76668627  0.51694118  0.84904047     0.06640
C1087       C  0.75291666  0.54206209  0.80634912    -0.03320
C1088       C  0.73391833  0.51497103  0.77203375    -0.07770
C1089       C  0.72849066  0.96303829  0.78012866     0.05750
C1090       C  0.74164367  0.93795749  0.82313618    -0.02800
Br1091     Br  0.73409517  0.86713314  0.83598158    -0.02490
H1092       H  0.76914276  0.94555312  0.89152783     0.09670
H1093       H  0.72572771  0.53438303  0.73772285     0.07680
Br1094     Br  0.76009012  0.61288489  0.79382173    -0.02920
C1095       C  0.74229895  0.71411687  0.60896923    -0.09560
C1096       C  0.78926553  0.71972104  0.58207624     0.06640
C1097       C  0.79764868  0.73949256  0.53124032    -0.03320
C1098       C  0.75842361  0.75329630  0.50782411    -0.07770
C1099       C  0.71151353  0.74817111  0.53490947     0.05750
C1100       C  0.70317585  0.72814731  0.58570978    -0.02800
Br1101     Br  0.63905019  0.71842941  0.62492405    -0.02490
H1102       H  0.73642031  0.70011047  0.64824097     0.09670
H1103       H  0.76434423  0.76765870  0.96864191     0.07680
Br1104     Br  0.86223179  0.75042500  0.99289815    -0.02920
loop_ 
_geom_bond_atom_site_label_1 
_geom_bond_atom_site_label_2 
_geom_bond_distance 
_geom_bond_site_symmetry_2 
_ccdc_geom_bond_type 
C1            C6   1.425       .  A
C1          C140   1.395       .  A
C1          C204   1.474       .  S
C2            C3   1.391       .  A
C2          C139   1.395       .  A
C2            H7   1.085       .  S
C3            C4   1.383       .  A
C3          C133   1.446       .  S
C4          C143   1.389       .  A
C4            H8   1.087   1_554  S
C5            C6   1.421       .  A
C5          C142   1.389       .  A
C5          C241   1.479       .  S
C6            H9   1.083       .  S
C10          C11   1.395       .  A
C10          C15   1.426       .  A
C10          C97   1.473       .  S
C11          C12   1.387       .  A
C11          H16   1.086       .  S
C12          C13   1.381       .  A
C12         C130   1.444       .  S
C13          C14   1.390       .  A
C13          H17   1.086       .  S
C14          C15   1.423       .  A
C14          C69   1.483       .  S
C15          H18   1.083       .  S
C19          C20   1.397       .  A
C19          C24   1.425       .  A
C19          C68   1.476       .  S
C20          C21   1.391       .  A
C20          H25   1.085       .  S
C21          C22   1.386       .  A
C21         C123   1.449       .  S
C22          C23   1.389       .  A
C22          H26   1.086       .  S
C23          C24   1.422       .  A
C23         C100   1.485       .  S
C24          H27   1.083       .  S
C28          C29   1.397       .  A
C28         C171   1.424       .  A
C28         C104   1.476       .  S
C29          C30   1.393       .  A
C29          H34   1.085       .  S
C30          C31   1.386       .  A
C30         C120   1.450       .  S
C31          C32   1.388       .  A
C31          H35   1.087       .  S
C32         C171   1.420       .  A
C32         C240   1.481       .  S
C33         C166   1.424       .  A
C33         C170   1.420       .  A
C33          H36   1.083   1_556  S
C37          C38   1.397       .  A
C37          C42   1.422       .  A
C37          C99   1.474       .  S
C38          C39   1.394       .  A
C38          H43   1.085       .  S
C39          C40   1.386       .  A
C39         C113   1.450       .  S
C40          C41   1.388       .  A
C40          H44   1.087       .  S
C41          C42   1.418       .  A
C41          C98   1.478       .  S
C42          H45   1.083       .  S
C46          C47   1.397       .  A
C46          C51   1.424       .  A
C46         C101   1.473       .  S
C47          C48   1.389       .  A
C47          H52   1.085       .  S
C48          C49   1.385       .  A
C48         C110   1.449       .  S
C49          C50   1.389       .  A
C49          H53   1.086       .  S
C50          C51   1.421       .  A
C50          C67   1.484       .  S
C51          H54   1.083       .  S
O55          C66   1.297   1_556  A
O55        Zr229   2.468       .  S
O56          C67   1.287       .  A
O56        Zr366   2.422       .  S
O57          C68   1.298       .  A
O57         Zr63   2.471       .  S
O58          C69   1.286       .  A
O58        Zr615   2.420       .  S
O59          C69   1.303       .  A
O59         Zr93   2.473       .  S
O60          C68   1.290       .  A
O60        Zr368   2.434       .  S
O61          C67   1.303       .  A
O61        Zr615   2.474       .  S
O62          C66   1.291       .  A
O62         Zr63   2.442       .  S
Zr63        O610   2.420   1_455  S
Zr63        O613   2.474   1_455  S
Zr63         O65   2.337       .  S
Zr63         O71   2.331       .  S
Zr63        O616   2.355   1_455  S
Zr63        O625   2.354   1_455  S
O64         Zr93   2.353       .  S
O64        Zr615   2.355       .  S
O64        Zr366   2.353       .  S
O65        Zr229   2.327   1_554  S
O65        Zr368   2.353       .  S
C66         C139   1.474       .  S
H70          O71   0.964       .  S
O71        Zr918   2.355   1_455  S
O71        Zr368   2.339       .  S
H72          O73   0.964       .  S
O73         Zr93   2.329       .  S
O73        Zr615   2.354       .  S
O73        Zr781   2.337   1_554  S
O74          C97   1.297       .  A
O74         Zr90   2.468       .  S
O75          C98   1.285       .  A
O75        Zr367   2.414   1_545  S
O76          C99   1.297       .  A
O76         Zr92   2.467       .  S
O77         C100   1.286       .  A
O77         Zr93   2.419       .  S
O78         C101   1.297       .  A
O78        Zr231   2.469       .  S
O79         C102   1.285   1_554  A
O79         Zr92   2.416       .  S
O80         C103   1.285       .  A
O80        Zr646   2.413   1_455  S
O81         C104   1.298       .  A
O81        Zr232   2.472       .  S
O82         C103   1.303       .  A
O82         Zr92   2.477       .  S
O83         C518   1.291   1_554  A
O83         Zr93   2.439       .  S
O84         C651   1.291       .  A
O84         Zr90   2.441       .  S
O85         C516   1.303       .  A
O85         Zr91   2.478       .  S
O86         C101   1.289       .  A
O86        Zr643   2.430       .  S
O87         C100   1.305       .  A
O87        Zr366   2.481       .  S
O88          C97   1.290       .  A
O88         Zr94   2.433       .  S
O89         C650   1.303       .  A
O89        Zr232   2.477       .  S
Zr90        O332   2.422   1_545  S
Zr90        O363   2.481   1_545  S
Zr90         O96   2.337       .  S
Zr90        O108   2.333       .  S
Zr90        O340   2.353   1_545  S
Zr90        O899   2.355   1_545  S
Zr91        O193   2.468       .  S
Zr91        O351   2.414       .  S
Zr91        O638   2.430       .  S
Zr91        O203   2.327       .  S
Zr91        O763   2.337   1_455  S
Zr91        O785   2.353   1_455  S
Zr91        O520   2.351       .  S
Zr92        O336   2.434   1_545  S
Zr92        O106   2.352       .  S
Zr92        O341   2.353   1_545  S
Zr92        O347   2.339   1_545  S
Zr92        O648   2.325       .  S
Zr93        O216   2.469   1_554  S
Zr93         O95   2.336   1_554  S
Zr93        O384   2.353       .  S
Zr94        O632   2.413       .  S
Zr94        O219   2.472   1_554  S
Zr94        O227   2.477   1_554  S
Zr94         O96   2.353       .  S
Zr94        O108   2.339       .  S
Zr94        O371   2.325   1_544  S
Zr94        O658   2.354       .  S
O95        Zr781   2.353       .  S
O95        Zr370   2.325   1_556  S
O96        Zr644   2.325       .  S
C98         O641   1.303       .  A
C99         O636   1.291   1_455  A
C102        C170   1.481       .  S
C102        O499   1.303   1_545  A
C103        C143   1.479       .  S
C104        O497   1.291   1_545  A
H105        O244   0.966       .  S
O106       Zr505   2.351   1_544  S
O106       Zr646   2.354   1_455  S
O106        H243   0.966   1_554  S
H107        O108   0.964       .  S
O108       Zr369   2.353   1_545  S
C109        C114   1.390       .  A
C109        C662   1.406   1_455  A
C109        H116   1.084       .  S
C110        C111   1.398       .  A
C110        C661   1.406       .  A
C111        C112   1.387       .  A
C111       Br118   1.918       .  S
C112        C665   1.405       .  A
C112        H117   1.084       .  S
C113        C114   1.399       .  A
C113        C664   1.405   1_455  A
C114       Br115   1.918       .  S
C119        C124   1.387       .  A
C119        C396   1.405       .  A
C119        H126   1.084       .  S
C120        C121   1.399       .  A
C120        C395   1.405   1_545  A
C121        C122   1.389       .  A
C121       Br128   1.918       .  S
C122        C399   1.406   1_545  A
C122        H127   1.084       .  S
C123        C124   1.399       .  A
C123        C398   1.406       .  A
C124       Br125   1.918       .  S
C129        C130   1.390       .  A
C129        C134   1.385       .  A
C129        H136   1.084       .  S
C130        C131   1.413       .  A
C131        C132   1.388       .  A
C131       Br276   1.923   1_554  S
C132        C133   1.391       .  A
C132        H275   1.084   1_554  S
C133        C134   1.414       .  A
C134       Br135   1.923       .  S
H137        C270   1.084       .  S
Br138       C269   1.923       .  S
C139        C144   1.425       .  A
C140        C141   1.391       .  A
C140        H145   1.085       .  S
C141        C142   1.383       .  A
C141        C271   1.446       .  S
C142        H146   1.087       .  S
C143        C144   1.421       .  A
C144        H147   1.083       .  S
C148        C149   1.395       .  A
C148        C153   1.426       .  A
C148        C235   1.473       .  S
C149        C150   1.387       .  A
C149        H154   1.086       .  S
C150        C151   1.381       .  A
C150        C268   1.444       .  S
C151        C152   1.390       .  A
C151        H155   1.086       .  S
C152        C153   1.423       .  A
C152        C207   1.483       .  S
C153        H156   1.083       .  S
C157        C158   1.397       .  A
C157        C162   1.425       .  A
C157        C206   1.476       .  S
C158        C159   1.391       .  A
C158        H163   1.085       .  S
C159        C160   1.386       .  A
C159        C261   1.449       .  S
C160        C161   1.389       .  A
C160        H164   1.086       .  S
C161        C162   1.422       .  A
C161        C238   1.485       .  S
C162        H165   1.083       .  S
C166        C167   1.397       .  A
C166        C242   1.476       .  S
C167        C168   1.393       .  A
C167        H172   1.085       .  S
C168        C169   1.386       .  A
C168        C258   1.450       .  S
C169        C170   1.388       .  A
C169        H173   1.087       .  S
C171        H174   1.083       .  S
C175        C176   1.397       .  A
C175        C180   1.422       .  A
C175        C237   1.474       .  S
C176        C177   1.394       .  A
C176        H181   1.085       .  S
C177        C178   1.386       .  A
C177        C251   1.450       .  S
C178        C179   1.388       .  A
C178        H182   1.087       .  S
C179        C180   1.418       .  A
C179        C236   1.478       .  S
C180        H183   1.083       .  S
C184        C185   1.397       .  A
C184        C189   1.424       .  A
C184        C239   1.473       .  S
C185        C186   1.389       .  A
C185        H190   1.085       .  S
C186        C187   1.385       .  A
C186        C248   1.449       .  S
C187        C188   1.389       .  A
C187        H191   1.086       .  S
C188        C189   1.421       .  A
C188        C205   1.484       .  S
C189        H192   1.083       .  S
O193        C204   1.297       .  A
O194        C205   1.287       .  A
O194       Zr504   2.422       .  S
O195        C206   1.298       .  A
O195       Zr201   2.471       .  S
O196        C207   1.286       .  A
O196       Zr753   2.420       .  S
O197        C207   1.303       .  A
O197       Zr231   2.473       .  S
O198        C206   1.290       .  A
O198       Zr506   2.434       .  S
O199        C205   1.303       .  A
O199       Zr753   2.474       .  S
O200        C204   1.291       .  A
O200       Zr201   2.442       .  S
Zr201       O748   2.420   1_455  S
Zr201       O751   2.474   1_455  S
Zr201       O754   2.355   1_455  S
Zr201       O203   2.337       .  S
Zr201       O763   2.354   1_455  S
Zr201       O209   2.331       .  S
O202       Zr753   2.355       .  S
O202       Zr504   2.353       .  S
O202       Zr231   2.353       .  S
O203       Zr506   2.353       .  S
H208        O209   0.964       .  S
O209      Zr1056   2.355   1_455  S
O209       Zr506   2.339       .  S
H210        O211   0.964       .  S
O211       Zr753   2.354       .  S
O211       Zr643   2.337       .  S
O211       Zr231   2.329       .  S
O212        C235   1.297       .  A
O212       Zr228   2.468       .  S
O213        C236   1.285       .  A
O213       Zr505   2.414   1_545  S
O214        C237   1.297       .  A
O214       Zr230   2.467       .  S
O215        C238   1.286       .  A
O215       Zr231   2.419       .  S
O216        C239   1.297       .  A
O217        C240   1.285       .  A
O217       Zr230   2.416       .  S
O218        C241   1.285       .  A
O218       Zr784   2.413   1_455  S
O219        C242   1.298       .  A
O220        C241   1.303       .  A
O220       Zr230   2.477       .  S
O221        C380   1.291       .  A
O221       Zr231   2.439       .  S
O222        C789   1.291       .  A
O222       Zr228   2.441       .  S
O223        C378   1.303       .  A
O223       Zr229   2.478       .  S
O224        C239   1.289       .  A
O224       Zr781   2.430       .  S
O225        C238   1.305       .  A
O225       Zr504   2.481       .  S
O226        C235   1.290       .  A
O226       Zr232   2.433       .  S
O227        C788   1.303       .  A
Zr228       O470   2.422   1_545  S
Zr228       O501   2.481   1_545  S
Zr228       O478   2.353   1_545  S
Zr228      O1037   2.355   1_545  S
Zr228       O234   2.337       .  S
Zr228       O246   2.333       .  S
Zr229       O489   2.414       .  S
Zr229       O776   2.430       .  S
Zr229       O625   2.337   1_456  S
Zr229       O647   2.353   1_455  S
Zr229       O382   2.351   1_556  S
Zr230       O474   2.434   1_545  S
Zr230       O479   2.353   1_545  S
Zr230       O485   2.339   1_545  S
Zr230       O786   2.325       .  S
Zr230       O244   2.352       .  S
Zr231       O233   2.336       .  S
Zr231       O522   2.353       .  S
Zr232       O770   2.413       .  S
Zr232       O509   2.325   1_545  S
Zr232       O234   2.353       .  S
Zr232       O246   2.339       .  S
Zr232       O796   2.354       .  S
O233       Zr643   2.353       .  S
O233       Zr508   2.325       .  S
O234       Zr782   2.325       .  S
C236        O779   1.303       .  A
C237        O774   1.291   1_455  A
C240        O361   1.303   1_545  A
C242        O359   1.291   1_546  A
O244       Zr367   2.351   1_545  S
O244       Zr784   2.354   1_455  S
H245        O246   0.964       .  S
O246       Zr507   2.353   1_545  S
C247        C800   1.406   1_455  A
C247        C252   1.390       .  A
C247        H254   1.084       .  S
C248        C799   1.406       .  A
C248        C249   1.398       .  A
C249        C250   1.387       .  A
C249       Br256   1.918       .  S
C250        C803   1.405       .  A
C250        H255   1.084       .  S
C251        C802   1.405   1_455  A
C251        C252   1.399       .  A
C252       Br253   1.918       .  S
C257        C534   1.405       .  A
C257        C262   1.387       .  A
C257        H264   1.084       .  S
C258        C533   1.405   1_545  A
C258        C259   1.399       .  A
C259        C260   1.389       .  A
C259       Br266   1.918       .  S
C260        C537   1.406   1_545  A
C260        H265   1.084       .  S
C261        C536   1.406       .  A
C261        C262   1.399       .  A
C262       Br263   1.918       .  S
C267        C268   1.390       .  A
C267        C272   1.385       .  A
C267        H274   1.084       .  S
C268        C269   1.413       .  A
C269        C270   1.388       .  A
C270        C271   1.391       .  A
C271        C272   1.414       .  A
C272       Br273   1.923       .  S
C277        C416   1.395       .  A
C277        C282   1.425       .  A
C277        C480   1.474       .  S
C278        C415   1.395       .  A
C278        C279   1.391       .  A
C278        H283   1.085       .  S
C279        C280   1.383       .  A
C279        C409   1.446       .  S
C280        C419   1.389       .  A
C280        H284   1.087   1_554  S
C281        C418   1.389       .  A
C281        C282   1.421       .  A
C281        C517   1.479       .  S
C282        H285   1.083       .  S
C286        C287   1.395       .  A
C286        C291   1.426       .  A
C286        C373   1.473       .  S
C287        C288   1.387       .  A
C287        H292   1.086       .  S
C288        C289   1.381       .  A
C288        C406   1.444       .  S
C289        C290   1.390       .  A
C289        H293   1.086       .  S
C290        C291   1.423       .  A
C290        C345   1.483       .  S
C291        H294   1.083       .  S
C295        C296   1.397       .  A
C295        C300   1.425       .  A
C295        C344   1.476       .  S
C296        C297   1.391       .  A
C296        H301   1.085       .  S
C297        C298   1.386       .  A
C297        C399   1.449       .  S
C298        C299   1.389       .  A
C298        H302   1.086       .  S
C299        C300   1.422       .  A
C299        C376   1.485       .  S
C300        H303   1.083       .  S
C304        C305   1.397       .  A
C304        C447   1.424       .  A
C304        C380   1.476       .  S
C305        C306   1.393       .  A
C305        H310   1.085       .  S
C306        C307   1.386       .  A
C306        C396   1.450       .  S
C307        C308   1.388       .  A
C307        H311   1.087       .  S
C308        C447   1.420       .  A
C308        C516   1.481       .  S
C309        C442   1.424       .  A
C309        C446   1.420       .  A
C309        H312   1.083   1_556  S
C313        C314   1.397       .  A
C313        C318   1.422       .  A
C313        C375   1.474       .  S
C314        C315   1.394       .  A
C314        H319   1.085       .  S
C315        C316   1.386       .  A
C315        C389   1.450       .  S
C316        C317   1.388       .  A
C316        H320   1.087       .  S
C317        C318   1.418       .  A
C317        C374   1.478       .  S
C318        H321   1.083       .  S
C322        C323   1.397       .  A
C322        C327   1.424       .  A
C322        C377   1.473       .  S
C323        C324   1.389       .  A
C323        H328   1.085       .  S
C324        C325   1.385       .  A
C324        C386   1.449       .  S
C325        C326   1.389       .  A
C325        H329   1.086       .  S
C326        C327   1.421       .  A
C326        C343   1.484       .  S
C327        H330   1.083       .  S
O331        C342   1.297   1_556  A
O331       Zr505   2.468       .  S
O332        C343   1.287       .  A
O333        C344   1.298       .  A
O333       Zr339   2.471       .  S
O334        C345   1.286       .  A
O334       Zr891   2.420       .  S
O335        C345   1.303       .  A
O335       Zr369   2.473       .  S
O336        C344   1.290       .  A
O337        C343   1.303       .  A
O337       Zr891   2.474       .  S
O338        C342   1.291       .  A
O338       Zr339   2.442       .  S
Zr339       O886   2.420   1_455  S
Zr339       O889   2.474   1_455  S
Zr339       O892   2.355   1_455  S
Zr339       O341   2.337       .  S
Zr339       O901   2.354   1_455  S
Zr339       O347   2.331       .  S
O340       Zr891   2.355       .  S
O340       Zr369   2.353       .  S
O341       Zr505   2.327   1_554  S
C342        C415   1.474       .  S
H346        O347   0.964       .  S
O347       Zr642   2.355   1_465  S
H348        O349   0.964       .  S
O349       Zr891   2.354       .  S
O349      Zr1057   2.337   1_554  S
O349       Zr369   2.329       .  S
O350        C373   1.297       .  A
O350       Zr366   2.468       .  S
O351        C374   1.285       .  A
O352        C375   1.297       .  A
O352       Zr368   2.467       .  S
O353        C376   1.286       .  A
O353       Zr369   2.419       .  S
O354        C377   1.297       .  A
O354       Zr507   2.469       .  S
O355        C378   1.285   1_554  A
O355       Zr368   2.416       .  S
O356        C379   1.285       .  A
O356       Zr922   2.413   1_455  S
O357        C380   1.298       .  A
O357       Zr508   2.472       .  S
O358        C379   1.303       .  A
O358       Zr368   2.477       .  S
O359       Zr369   2.439       .  S
O360        C927   1.291       .  A
O360       Zr366   2.441       .  S
O361       Zr367   2.478       .  S
O362        C377   1.289       .  A
O362       Zr919   2.430       .  S
O363        C376   1.305       .  A
O364        C373   1.290       .  A
O364       Zr370   2.433       .  S
O365        C926   1.303       .  A
O365       Zr508   2.477       .  S
Zr366       O623   2.355       .  S
Zr366       O372   2.337       .  S
Zr366       O384   2.333       .  S
Zr367       O469   2.468       .  S
Zr367       O914   2.430       .  S
Zr367       O479   2.327       .  S
Zr367      O1039   2.337   1_455  S
Zr367      O1061   2.353   1_455  S
Zr368       O924   2.325       .  S
Zr368       O382   2.352       .  S
Zr369       O492   2.469   1_554  S
Zr369       O371   2.336   1_554  S
Zr370       O908   2.413       .  S
Zr370       O495   2.472   1_554  S
Zr370       O503   2.477   1_554  S
Zr370       O372   2.353       .  S
Zr370       O384   2.339       .  S
Zr370       O934   2.354       .  S
O371      Zr1057   2.353       .  S
O372       Zr920   2.325       .  S
C374        O917   1.303       .  A
C375        O912   1.291   1_455  A
C378        C446   1.481       .  S
C379        C419   1.479       .  S
H381        O520   0.966       .  S
O382       Zr922   2.354   1_455  S
O382        H519   0.966   1_554  S
H383        O384   0.964       .  S
C385        C938   1.406   1_455  A
C385        C390   1.390       .  A
C385        H392   1.084       .  S
C386        C937   1.406       .  A
C386        C387   1.398       .  A
C387        C388   1.387       .  A
C387       Br394   1.918       .  S
C388        C941   1.405       .  A
C388        H393   1.084       .  S
C389        C940   1.405   1_455  A
C389        C390   1.399       .  A
C390       Br391   1.918       .  S
C395        C400   1.387       .  A
C395        H402   1.084       .  S
C396        C397   1.399       .  A
C397        C398   1.389       .  A
C397       Br404   1.918       .  S
C398        H403   1.084       .  S
C399        C400   1.399       .  A
C400       Br401   1.918       .  S
C405        C406   1.390       .  A
C405        C410   1.385       .  A
C405        H412   1.084       .  S
C406        C407   1.413       .  A
C407        C408   1.388       .  A
C407       Br552   1.923   1_554  S
C408        C409   1.391       .  A
C408        H551   1.084   1_554  S
C409        C410   1.414       .  A
C410       Br411   1.923       .  S
H413        C546   1.084       .  S
Br414       C545   1.923       .  S
C415        C420   1.425       .  A
C416        C417   1.391       .  A
C416        H421   1.085       .  S
C417        C418   1.383       .  A
C417        C547   1.446       .  S
C418        H422   1.087       .  S
C419        C420   1.421       .  A
C420        H423   1.083       .  S
C424        C425   1.395       .  A
C424        C429   1.426       .  A
C424        C511   1.473       .  S
C425        C426   1.387       .  A
C425        H430   1.086       .  S
C426        C427   1.381       .  A
C426        C544   1.444       .  S
C427        C428   1.390       .  A
C427        H431   1.086       .  S
C428        C429   1.423       .  A
C428        C483   1.483       .  S
C429        H432   1.083       .  S
C433        C434   1.397       .  A
C433        C438   1.425       .  A
C433        C482   1.476       .  S
C434        C435   1.391       .  A
C434        H439   1.085       .  S
C435        C436   1.386       .  A
C435        C537   1.449       .  S
C436        C437   1.389       .  A
C436        H440   1.086       .  S
C437        C438   1.422       .  A
C437        C514   1.485       .  S
C438        H441   1.083       .  S
C442        C443   1.397       .  A
C442        C518   1.476       .  S
C443        C444   1.393       .  A
C443        H448   1.085       .  S
C444        C445   1.386       .  A
C444        C534   1.450       .  S
C445        C446   1.388       .  A
C445        H449   1.087       .  S
C447        H450   1.083       .  S
C451        C452   1.397       .  A
C451        C456   1.422       .  A
C451        C513   1.474       .  S
C452        C453   1.394       .  A
C452        H457   1.085       .  S
C453        C454   1.386       .  A
C453        C527   1.450       .  S
C454        C455   1.388       .  A
C454        H458   1.087       .  S
C455        C456   1.418       .  A
C455        C512   1.478       .  S
C456        H459   1.083       .  S
C460        C461   1.397       .  A
C460        C465   1.424       .  A
C460        C515   1.473       .  S
C461        C462   1.389       .  A
C461        H466   1.085       .  S
C462        C463   1.385       .  A
C462        C524   1.449       .  S
C463        C464   1.389       .  A
C463        H467   1.086       .  S
C464        C465   1.421       .  A
C464        C481   1.484       .  S
C465        H468   1.083       .  S
O469        C480   1.297       .  A
O470        C481   1.287       .  A
O471        C482   1.298       .  A
O471       Zr477   2.471       .  S
O472        C483   1.286       .  A
O472      Zr1029   2.420       .  S
O473        C483   1.303       .  A
O473       Zr507   2.473       .  S
O474        C482   1.290       .  A
O475        C481   1.303       .  A
O475      Zr1029   2.474       .  S
O476        C480   1.291       .  A
O476       Zr477   2.442       .  S
Zr477      O1024   2.420   1_455  S
Zr477      O1027   2.474   1_455  S
Zr477      O1030   2.355   1_455  S
Zr477       O479   2.337       .  S
Zr477      O1039   2.354   1_455  S
Zr477       O485   2.331       .  S
O478      Zr1029   2.355       .  S
O478       Zr507   2.353       .  S
H484        O485   0.964       .  S
O485       Zr780   2.355   1_465  S
H486        O487   0.964       .  S
O487      Zr1029   2.354       .  S
O487       Zr919   2.337       .  S
O487       Zr507   2.329       .  S
O488        C511   1.297       .  A
O488       Zr504   2.468       .  S
O489        C512   1.285       .  A
O490        C513   1.297       .  A
O490       Zr506   2.467       .  S
O491        C514   1.286       .  A
O491       Zr507   2.419       .  S
O492        C515   1.297       .  A
O493        C516   1.285       .  A
O493       Zr506   2.416       .  S
O494        C517   1.285       .  A
O494      Zr1060   2.413   1_455  S
O495        C518   1.298       .  A
O496        C517   1.303       .  A
O496       Zr506   2.477       .  S
O497       Zr507   2.439       .  S
O498       C1065   1.291       .  A
O498       Zr504   2.441       .  S
O499       Zr505   2.478       .  S
O500        C515   1.289       .  A
O500      Zr1057   2.430       .  S
O501        C514   1.305       .  A
O502        C511   1.290       .  A
O502       Zr508   2.433       .  S
O503       C1064   1.303       .  A
Zr504       O761   2.355       .  S
Zr504       O510   2.337       .  S
Zr504       O522   2.333       .  S
Zr505      O1052   2.430       .  S
Zr505       O901   2.337   1_456  S
Zr505       O923   2.353   1_455  S
Zr506      O1062   2.325       .  S
Zr506       O520   2.352       .  S
Zr507       O509   2.336       .  S
Zr508      O1046   2.413       .  S
Zr508       O510   2.353       .  S
Zr508       O522   2.339       .  S
Zr508      O1072   2.354       .  S
O509       Zr919   2.353       .  S
O510      Zr1058   2.325       .  S
C512       O1055   1.303       .  A
C513       O1050   1.291   1_455  A
O520      Zr1060   2.354   1_455  S
H521        O522   0.964       .  S
C523       C1076   1.406   1_455  A
C523        C528   1.390       .  A
C523        H530   1.084       .  S
C524       C1075   1.406       .  A
C524        C525   1.398       .  A
C525        C526   1.387       .  A
C525       Br532   1.918       .  S
C526       C1079   1.405       .  A
C526        H531   1.084       .  S
C527       C1078   1.405   1_455  A
C527        C528   1.399       .  A
C528       Br529   1.918       .  S
C533        C538   1.387       .  A
C533        H540   1.084       .  S
C534        C535   1.399       .  A
C535        C536   1.389       .  A
C535       Br542   1.918       .  S
C536        H541   1.084       .  S
C537        C538   1.399       .  A
C538       Br539   1.918       .  S
C543        C544   1.390       .  A
C543        C548   1.385       .  A
C543        H550   1.084       .  S
C544        C545   1.413       .  A
C545        C546   1.388       .  A
C546        C547   1.391       .  A
C547        C548   1.414       .  A
C548       Br549   1.923       .  S
C553        C692   1.395       .  A
C553        C558   1.425       .  A
C553        C756   1.474       .  S
C554        C691   1.395       .  A
C554        C555   1.391       .  A
C554        H559   1.085       .  S
C555        C556   1.383       .  A
C555        C685   1.446       .  S
C556        C695   1.389       .  A
C556        H560   1.087   1_554  S
C557        C694   1.389       .  A
C557        C558   1.421       .  A
C557        C793   1.479       .  S
C558        H561   1.083       .  S
C562        C563   1.395       .  A
C562        C567   1.426       .  A
C562        C649   1.473       .  S
C563        C564   1.387       .  A
C563        H568   1.086       .  S
C564        C565   1.381       .  A
C564        C682   1.444       .  S
C565        C566   1.390       .  A
C565        H569   1.086       .  S
C566        C567   1.423       .  A
C566        C621   1.483       .  S
C567        H570   1.083       .  S
C571        C572   1.397       .  A
C571        C576   1.425       .  A
C571        C620   1.476       .  S
C572        C573   1.391       .  A
C572        H577   1.085       .  S
C573        C574   1.386       .  A
C573        C675   1.449       .  S
C574        C575   1.389       .  A
C574        H578   1.086       .  S
C575        C576   1.422       .  A
C575        C652   1.485       .  S
C576        H579   1.083       .  S
C580        C581   1.397       .  A
C580        C723   1.424       .  A
C580        C656   1.476       .  S
C581        C582   1.393       .  A
C581        H586   1.085       .  S
C582        C583   1.386       .  A
C582        C672   1.450       .  S
C583        C584   1.388       .  A
C583        H587   1.087       .  S
C584        C723   1.420       .  A
C584        C792   1.481       .  S
C585        C718   1.424       .  A
C585        C722   1.420       .  A
C585        H588   1.083   1_556  S
C589        C590   1.397       .  A
C589        C594   1.422       .  A
C589        C651   1.474       .  S
C590        C591   1.394       .  A
C590        H595   1.085       .  S
C591        C592   1.386       .  A
C591        C665   1.450       .  S
C592        C593   1.388       .  A
C592        H596   1.087       .  S
C593        C594   1.418       .  A
C593        C650   1.478       .  S
C594        H597   1.083       .  S
C598        C599   1.397       .  A
C598        C603   1.424       .  A
C598        C653   1.473       .  S
C599        C600   1.389       .  A
C599        H604   1.085       .  S
C600        C601   1.385       .  A
C600        C662   1.449       .  S
C601        C602   1.389       .  A
C601        H605   1.086       .  S
C602        C603   1.421       .  A
C602        C619   1.484       .  S
C603        H606   1.083       .  S
O607        C618   1.297   1_556  A
O607       Zr781   2.468       .  S
O608        C619   1.287       .  A
O608       Zr918   2.422       .  S
O609        C620   1.298       .  A
O609       Zr615   2.471       .  S
O610        C621   1.286       .  A
O611        C621   1.303       .  A
O611       Zr645   2.473       .  S
O612        C620   1.290       .  A
O612       Zr920   2.434       .  S
O613        C619   1.303       .  A
O614        C618   1.291       .  A
O614       Zr615   2.442       .  S
Zr615       O617   2.337       .  S
Zr615       O623   2.331       .  S
O616       Zr918   2.353       .  S
O616       Zr645   2.353       .  S
O617       Zr781   2.327   1_554  S
O617       Zr920   2.353       .  S
C618        C691   1.474       .  S
H622        O623   0.964       .  S
O623       Zr920   2.339       .  S
H624        O625   0.964       .  S
O625       Zr645   2.329       .  S
O626        C649   1.297       .  A
O626       Zr642   2.468       .  S
O627        C650   1.285       .  A
O627       Zr919   2.414   1_545  S
O628        C651   1.297       .  A
O628       Zr644   2.467       .  S
O629        C652   1.286       .  A
O629       Zr645   2.419       .  S
O630        C653   1.297       .  A
O630       Zr783   2.469       .  S
O631        C654   1.285   1_554  A
O631       Zr644   2.416       .  S
O632        C655   1.285       .  A
O633        C656   1.298       .  A
O633       Zr784   2.472       .  S
O634        C655   1.303       .  A
O634       Zr644   2.477       .  S
O635       C1070   1.291   1_554  A
O635       Zr645   2.439       .  S
O636       Zr642   2.441       .  S
O637       C1068   1.303       .  A
O637       Zr643   2.478       .  S
O638        C653   1.289   1_455  A
O639        C652   1.305       .  A
O639       Zr918   2.481       .  S
O640        C649   1.290       .  A
O640       Zr646   2.433       .  S
O641       Zr784   2.477   1_455  S
Zr642       O884   2.422   1_545  S
Zr642       O915   2.481   1_545  S
Zr642       O892   2.353   1_545  S
Zr642       O648   2.337   1_655  S
Zr642       O660   2.333       .  S
Zr643       O745   2.468       .  S
Zr643       O903   2.414       .  S
Zr643       O755   2.327       .  S
Zr643      O1072   2.351       .  S
Zr644       O888   2.434   1_545  S
Zr644       O893   2.353   1_545  S
Zr644       O899   2.339   1_545  S
Zr644       O658   2.352       .  S
Zr645       O768   2.469   1_554  S
Zr645       O647   2.336   1_554  S
Zr645       O936   2.353       .  S
Zr646       O771   2.472   1_554  S
Zr646       O779   2.477   1_654  S
Zr646       O923   2.325   1_544  S
Zr646       O648   2.353   1_655  S
Zr646       O660   2.339       .  S
O647       Zr922   2.325   1_556  S
C654        C722   1.481       .  S
C654       O1051   1.303   1_545  A
C655        C695   1.479       .  S
C656       O1049   1.291   1_545  A
H657        O796   0.966       .  S
O658      Zr1057   2.351   1_544  S
O658        H795   0.966   1_554  S
H659        O660   0.964       .  S
O660       Zr921   2.353   1_545  S
C661        C666   1.390       .  A
C661        H668   1.084       .  S
C662        C663   1.398       .  A
C663        C664   1.387       .  A
C663       Br670   1.918       .  S
C664        H669   1.084       .  S
C665        C666   1.399       .  A
C666       Br667   1.918       .  S
C671        C948   1.405       .  A
C671        C676   1.387       .  A
C671        H678   1.084       .  S
C672        C947   1.405   1_545  A
C672        C673   1.399       .  A
C673        C674   1.389       .  A
C673       Br680   1.918       .  S
C674        C951   1.406   1_545  A
C674        H679   1.084       .  S
C675        C950   1.406       .  A
C675        C676   1.399       .  A
C676       Br677   1.918       .  S
C681        C682   1.390       .  A
C681        C686   1.385       .  A
C681        H688   1.084       .  S
C682        C683   1.413       .  A
C683        C684   1.388       .  A
C683       Br828   1.923   1_554  S
C684        C685   1.391       .  A
C684        H827   1.084   1_554  S
C685        C686   1.414       .  A
C686       Br687   1.923       .  S
H689        C822   1.084       .  S
Br690       C821   1.923       .  S
C691        C696   1.425       .  A
C692        C693   1.391       .  A
C692        H697   1.085       .  S
C693        C694   1.383       .  A
C693        C823   1.446       .  S
C694        H698   1.087       .  S
C695        C696   1.421       .  A
C696        H699   1.083       .  S
C700        C701   1.395       .  A
C700        C705   1.426       .  A
C700        C787   1.473       .  S
C701        C702   1.387       .  A
C701        H706   1.086       .  S
C702        C703   1.381       .  A
C702        C820   1.444       .  S
C703        C704   1.390       .  A
C703        H707   1.086       .  S
C704        C705   1.423       .  A
C704        C759   1.483       .  S
C705        H708   1.083       .  S
C709        C710   1.397       .  A
C709        C714   1.425       .  A
C709        C758   1.476       .  S
C710        C711   1.391       .  A
C710        H715   1.085       .  S
C711        C712   1.386       .  A
C711        C813   1.449       .  S
C712        C713   1.389       .  A
C712        H716   1.086       .  S
C713        C714   1.422       .  A
C713        C790   1.485       .  S
C714        H717   1.083       .  S
C718        C719   1.397       .  A
C718        C794   1.476       .  S
C719        C720   1.393       .  A
C719        H724   1.085       .  S
C720        C721   1.386       .  A
C720        C810   1.450       .  S
C721        C722   1.388       .  A
C721        H725   1.087       .  S
C723        H726   1.083       .  S
C727        C728   1.397       .  A
C727        C732   1.422       .  A
C727        C789   1.474       .  S
C728        C729   1.394       .  A
C728        H733   1.085       .  S
C729        C730   1.386       .  A
C729        C803   1.450       .  S
C730        C731   1.388       .  A
C730        H734   1.087       .  S
C731        C732   1.418       .  A
C731        C788   1.478       .  S
C732        H735   1.083       .  S
C736        C737   1.397       .  A
C736        C741   1.424       .  A
C736        C791   1.473       .  S
C737        C738   1.389       .  A
C737        H742   1.085       .  S
C738        C739   1.385       .  A
C738        C800   1.449       .  S
C739        C740   1.389       .  A
C739        H743   1.086       .  S
C740        C741   1.421       .  A
C740        C757   1.484       .  S
C741        H744   1.083       .  S
O745        C756   1.297       .  A
O746        C757   1.287       .  A
O746      Zr1056   2.422       .  S
O747        C758   1.298       .  A
O747       Zr753   2.471       .  S
O748        C759   1.286       .  A
O749        C759   1.303       .  A
O749       Zr783   2.473       .  S
O750        C758   1.290       .  A
O750      Zr1058   2.434       .  S
O751        C757   1.303       .  A
O752        C756   1.291       .  A
O752       Zr753   2.442       .  S
Zr753       O755   2.337       .  S
Zr753       O761   2.331       .  S
O754      Zr1056   2.353       .  S
O754       Zr783   2.353       .  S
O755      Zr1058   2.353       .  S
H760        O761   0.964       .  S
O761      Zr1058   2.339       .  S
H762        O763   0.964       .  S
O763       Zr783   2.329       .  S
O764        C787   1.297       .  A
O764       Zr780   2.468       .  S
O765        C788   1.285       .  A
O765      Zr1057   2.414   1_545  S
O766        C789   1.297       .  A
O766       Zr782   2.467       .  S
O767        C790   1.286       .  A
O767       Zr783   2.419       .  S
O768        C791   1.297       .  A
O769        C792   1.285       .  A
O769       Zr782   2.416       .  S
O770        C793   1.285       .  A
O771        C794   1.298       .  A
O772        C793   1.303       .  A
O772       Zr782   2.477       .  S
O773        C932   1.291       .  A
O773       Zr783   2.439       .  S
O774       Zr780   2.441       .  S
O775        C930   1.303       .  A
O775       Zr781   2.478       .  S
O776        C791   1.289   1_455  A
O777        C790   1.305       .  A
O777      Zr1056   2.481       .  S
O778        C787   1.290       .  A
O778       Zr784   2.433       .  S
Zr780      O1022   2.422   1_545  S
Zr780      O1053   2.481   1_545  S
Zr780      O1030   2.353   1_545  S
Zr780       O786   2.337   1_655  S
Zr780       O798   2.333       .  S
Zr781      O1041   2.414       .  S
Zr781       O934   2.351   1_556  S
Zr782      O1026   2.434   1_545  S
Zr782      O1031   2.353   1_545  S
Zr782      O1037   2.339   1_545  S
Zr782       O796   2.352       .  S
Zr783       O785   2.336       .  S
Zr783      O1074   2.353       .  S
Zr784      O1061   2.325   1_545  S
Zr784       O786   2.353   1_655  S
Zr784       O798   2.339       .  S
O785      Zr1060   2.325       .  S
C792        O913   1.303   1_545  A
C794        O911   1.291   1_546  A
O796       Zr919   2.351   1_545  S
H797        O798   0.964       .  S
O798      Zr1059   2.353   1_545  S
C799        C804   1.390       .  A
C799        H806   1.084       .  S
C800        C801   1.398       .  A
C801        C802   1.387       .  A
C801       Br808   1.918       .  S
C802        H807   1.084       .  S
C803        C804   1.399       .  A
C804       Br805   1.918       .  S
C809       C1086   1.405       .  A
C809        C814   1.387       .  A
C809        H816   1.084       .  S
C810       C1085   1.405   1_545  A
C810        C811   1.399       .  A
C811        C812   1.389       .  A
C811       Br818   1.918       .  S
C812       C1089   1.406   1_545  A
C812        H817   1.084       .  S
C813       C1088   1.406       .  A
C813        C814   1.399       .  A
C814       Br815   1.918       .  S
C819        C820   1.390       .  A
C819        C824   1.385       .  A
C819        H826   1.084       .  S
C820        C821   1.413       .  A
C821        C822   1.388       .  A
C822        C823   1.391       .  A
C823        C824   1.414       .  A
C824       Br825   1.923       .  S
C829        C968   1.395       .  A
C829        C834   1.425       .  A
C829       C1032   1.474       .  S
C830        C967   1.395       .  A
C830        C831   1.391       .  A
C830        H835   1.085       .  S
C831        C832   1.383       .  A
C831        C961   1.446       .  S
C832        C971   1.389       .  A
C832        H836   1.087   1_554  S
C833        C970   1.389       .  A
C833        C834   1.421       .  A
C833       C1069   1.479       .  S
C834        H837   1.083       .  S
C838        C839   1.395       .  A
C838        C843   1.426       .  A
C838        C925   1.473       .  S
C839        C840   1.387       .  A
C839        H844   1.086       .  S
C840        C841   1.381       .  A
C840        C958   1.444       .  S
C841        C842   1.390       .  A
C841        H845   1.086       .  S
C842        C843   1.423       .  A
C842        C897   1.483       .  S
C843        H846   1.083       .  S
C847        C848   1.397       .  A
C847        C852   1.425       .  A
C847        C896   1.476       .  S
C848        C849   1.391       .  A
C848        H853   1.085       .  S
C849        C850   1.386       .  A
C849        C951   1.449       .  S
C850        C851   1.389       .  A
C850        H854   1.086       .  S
C851        C852   1.422       .  A
C851        C928   1.485       .  S
C852        H855   1.083       .  S
C856        C857   1.397       .  A
C856        C999   1.424       .  A
C856        C932   1.476       .  S
C857        C858   1.393       .  A
C857        H862   1.085       .  S
C858        C859   1.386       .  A
C858        C948   1.450       .  S
C859        C860   1.388       .  A
C859        H863   1.087       .  S
C860        C999   1.420       .  A
C860       C1068   1.481       .  S
C861        C994   1.424       .  A
C861        C998   1.420       .  A
C861        H864   1.083   1_556  S
C865        C866   1.397       .  A
C865        C870   1.422       .  A
C865        C927   1.474       .  S
C866        C867   1.394       .  A
C866        H871   1.085       .  S
C867        C868   1.386       .  A
C867        C941   1.450       .  S
C868        C869   1.388       .  A
C868        H872   1.087       .  S
C869        C870   1.418       .  A
C869        C926   1.478       .  S
C870        H873   1.083       .  S
C874        C875   1.397       .  A
C874        C879   1.424       .  A
C874        C929   1.473       .  S
C875        C876   1.389       .  A
C875        H880   1.085       .  S
C876        C877   1.385       .  A
C876        C938   1.449       .  S
C877        C878   1.389       .  A
C877        H881   1.086       .  S
C878        C879   1.421       .  A
C878        C895   1.484       .  S
C879        H882   1.083       .  S
O883        C894   1.297   1_556  A
O883      Zr1057   2.468       .  S
O884        C895   1.287       .  A
O885        C896   1.298       .  A
O885       Zr891   2.471       .  S
O886        C897   1.286       .  A
O887        C897   1.303       .  A
O887       Zr921   2.473       .  S
O888        C896   1.290       .  A
O889        C895   1.303       .  A
O890        C894   1.291       .  A
O890       Zr891   2.442       .  S
Zr891       O893   2.337       .  S
Zr891       O899   2.331       .  S
O892       Zr921   2.353       .  S
O893      Zr1057   2.327   1_554  S
C894        C967   1.474       .  S
H898        O899   0.964       .  S
H900        O901   0.964       .  S
O901       Zr921   2.329       .  S
O902        C925   1.297       .  A
O902       Zr918   2.468       .  S
O903        C926   1.285       .  A
O904        C927   1.297       .  A
O904       Zr920   2.467       .  S
O905        C928   1.286       .  A
O905       Zr921   2.419       .  S
O906        C929   1.297       .  A
O906      Zr1059   2.469       .  S
O907        C930   1.285   1_554  A
O907       Zr920   2.416       .  S
O908        C931   1.285       .  A
O909        C932   1.298       .  A
O909      Zr1060   2.472       .  S
O910        C931   1.303       .  A
O910       Zr920   2.477       .  S
O911       Zr921   2.439       .  S
O912       Zr918   2.441       .  S
O913       Zr919   2.478       .  S
O914        C929   1.289   1_455  A
O915        C928   1.305       .  A
O916        C925   1.290       .  A
O916       Zr922   2.433       .  S
O917      Zr1060   2.477   1_455  S
Zr918       O924   2.337   1_655  S
Zr918       O936   2.333       .  S
Zr919      O1021   2.468       .  S
Zr919      O1031   2.327       .  S
Zr920       O934   2.352       .  S
Zr921      O1044   2.469   1_554  S
Zr921       O923   2.336   1_554  S
Zr922      O1047   2.472   1_554  S
Zr922      O1055   2.477   1_654  S
Zr922       O924   2.353   1_655  S
Zr922       O936   2.339       .  S
C930        C998   1.481       .  S
C931        C971   1.479       .  S
H933       O1072   0.966       .  S
O934       H1071   0.966   1_554  S
H935        O936   0.964       .  S
C937        C942   1.390       .  A
C937        H944   1.084       .  S
C938        C939   1.398       .  A
C939        C940   1.387       .  A
C939       Br946   1.918       .  S
C940        H945   1.084       .  S
C941        C942   1.399       .  A
C942       Br943   1.918       .  S
C947        C952   1.387       .  A
C947        H954   1.084       .  S
C948        C949   1.399       .  A
C949        C950   1.389       .  A
C949       Br956   1.918       .  S
C950        H955   1.084       .  S
C951        C952   1.399       .  A
C952       Br953   1.918       .  S
C957        C958   1.390       .  A
C957        C962   1.385       .  A
C957        H964   1.084       .  S
C958        C959   1.413       .  A
C959        C960   1.388       .  A
C959      Br1104   1.923   1_554  S
C960        C961   1.391       .  A
C960       H1103   1.084   1_554  S
C961        C962   1.414       .  A
C962       Br963   1.923       .  S
H965       C1098   1.084       .  S
Br966      C1097   1.923       .  S
C967        C972   1.425       .  A
C968        C969   1.391       .  A
C968        H973   1.085       .  S
C969        C970   1.383       .  A
C969       C1099   1.446       .  S
C970        H974   1.087       .  S
C971        C972   1.421       .  A
C972        H975   1.083       .  S
C976        C977   1.395       .  A
C976        C981   1.426       .  A
C976       C1063   1.473       .  S
C977        C978   1.387       .  A
C977        H982   1.086       .  S
C978        C979   1.381       .  A
C978       C1096   1.444       .  S
C979        C980   1.390       .  A
C979        H983   1.086       .  S
C980        C981   1.423       .  A
C980       C1035   1.483       .  S
C981        H984   1.083       .  S
C985        C986   1.397       .  A
C985        C990   1.425       .  A
C985       C1034   1.476       .  S
C986        C987   1.391       .  A
C986        H991   1.085       .  S
C987        C988   1.386       .  A
C987       C1089   1.449       .  S
C988        C989   1.389       .  A
C988        H992   1.086       .  S
C989        C990   1.422       .  A
C989       C1066   1.485       .  S
C990        H993   1.083       .  S
C994        C995   1.397       .  A
C994       C1070   1.476       .  S
C995        C996   1.393       .  A
C995       H1000   1.085       .  S
C996        C997   1.386       .  A
C996       C1086   1.450       .  S
C997        C998   1.388       .  A
C997       H1001   1.087       .  S
C999       H1002   1.083       .  S
C1003      C1004   1.397       .  A
C1003      C1008   1.422       .  A
C1003      C1065   1.474       .  S
C1004      C1005   1.394       .  A
C1004      H1009   1.085       .  S
C1005      C1006   1.386       .  A
C1005      C1079   1.450       .  S
C1006      C1007   1.388       .  A
C1006      H1010   1.087       .  S
C1007      C1008   1.418       .  A
C1007      C1064   1.478       .  S
C1008      H1011   1.083       .  S
C1012      C1013   1.397       .  A
C1012      C1017   1.424       .  A
C1012      C1067   1.473       .  S
C1013      C1014   1.389       .  A
C1013      H1018   1.085       .  S
C1014      C1015   1.385       .  A
C1014      C1076   1.449       .  S
C1015      C1016   1.389       .  A
C1015      H1019   1.086       .  S
C1016      C1017   1.421       .  A
C1016      C1033   1.484       .  S
C1017      H1020   1.083       .  S
O1021      C1032   1.297       .  A
O1022      C1033   1.287       .  A
O1023      C1034   1.298       .  A
O1023     Zr1029   2.471       .  S
O1024      C1035   1.286       .  A
O1025      C1035   1.303       .  A
O1025     Zr1059   2.473       .  S
O1026      C1034   1.290       .  A
O1027      C1033   1.303       .  A
O1028      C1032   1.291       .  A
O1028     Zr1029   2.442       .  S
Zr1029     O1031   2.337       .  S
Zr1029     O1037   2.331       .  S
O1030     Zr1059   2.353       .  S
H1036      O1037   0.964       .  S
H1038      O1039   0.964       .  S
O1039     Zr1059   2.329       .  S
O1040      C1063   1.297       .  A
O1040     Zr1056   2.468       .  S
O1041      C1064   1.285       .  A
O1042      C1065   1.297       .  A
O1042     Zr1058   2.467       .  S
O1043      C1066   1.286       .  A
O1043     Zr1059   2.419       .  S
O1044      C1067   1.297       .  A
O1045      C1068   1.285       .  A
O1045     Zr1058   2.416       .  S
O1046      C1069   1.285       .  A
O1047      C1070   1.298       .  A
O1048      C1069   1.303       .  A
O1048     Zr1058   2.477       .  S
O1049     Zr1059   2.439       .  S
O1050     Zr1056   2.441       .  S
O1051     Zr1057   2.478       .  S
O1052      C1067   1.289   1_455  A
O1053      C1066   1.305       .  A
O1054      C1063   1.290       .  A
O1054     Zr1060   2.433       .  S
Zr1056     O1062   2.337   1_655  S
Zr1056     O1074   2.333       .  S
Zr1058     O1072   2.352       .  S
Zr1059     O1061   2.336       .  S
Zr1060     O1062   2.353   1_655  S
Zr1060     O1074   2.339       .  S
H1073      O1074   0.964       .  S
C1075      C1080   1.390       .  A
C1075      H1082   1.084       .  S
C1076      C1077   1.398       .  A
C1077      C1078   1.387       .  A
C1077     Br1084   1.918       .  S
C1078      H1083   1.084       .  S
C1079      C1080   1.399       .  A
C1080     Br1081   1.918       .  S
C1085      C1090   1.387       .  A
C1085      H1092   1.084       .  S
C1086      C1087   1.399       .  A
C1087      C1088   1.389       .  A
C1087     Br1094   1.918       .  S
C1088      H1093   1.084       .  S
C1089      C1090   1.399       .  A
C1090     Br1091   1.918       .  S
C1095      C1096   1.390       .  A
C1095      C1100   1.385       .  A
C1095      H1102   1.084       .  S
C1096      C1097   1.413       .  A
C1097      C1098   1.388       .  A
C1098      C1099   1.391       .  A
C1099      C1100   1.414       .  A
C1100     Br1101   1.923       .  S
