geometry optimzed in LAMMPS
_audit_creation_date              2020-12-01 
_audit_creation_method            'lammps2cif' 
_symmetry_space_group_name_H-M    'P1' 
_symmetry_Int_Tables_number       1 
_symmetry_cell_setting            triclinic 
loop_ 
_symmetry_equiv_pos_as_xyz 
  x,y,z 
_cell_length_a                    36.72812879 
_cell_length_b                    37.893155015987354 
_cell_length_c                    48.052499228073074 
_cell_angle_alpha                 90.37391495077307 
_cell_angle_beta                  90.4816412583024 
_cell_angle_gamma                 89.85331231222537 
loop_ 
_atom_site_label 
_atom_site_type_symbol 
_atom_site_fract_x 
_atom_site_fract_y 
_atom_site_fract_z 
_atom_site_charge 
O1          O  0.20575048  0.19022302  0.23246193    -0.57700
C2          C  0.14026973  0.26185937  0.20474081     0.74900
O3          O  0.15072234  0.26155253  0.29640681    -0.58900
C4          C  0.23237403  0.18587936  0.24890134     0.74900
C5          C  0.22980186  0.30995419  0.25640101     0.77300
Cd6        Cd  0.18465756  0.24692881  0.25307939     1.37500
O7          O  0.17288591  0.25133813  0.20302252    -0.57700
O8          O  0.21753889  0.29724386  0.23385832    -0.56500
C9          C  0.13417668  0.23231991  0.29741552     0.77200
O10         O  0.22081822  0.29369630  0.27821989    -0.58900
O11         O  0.12751831  0.26464319  0.22905633    -0.57400
O12         O  0.23641245  0.20932164  0.26751878    -0.57300
O13         O  0.14072658  0.21075816  0.27785875    -0.56500
O14         O  0.38368564  0.99849682  0.29940953    -0.57700
C15         C  0.31969627  0.43611445  0.25189029     0.74900
O16         O  0.34532558  0.05316818  0.22729222    -0.58900
C17         C  0.41164865  0.01766061  0.29700715     0.74900
C18         C  0.41194651  0.47795570  0.20263907     0.77300
Cd19       Cd  0.36699592  0.99761947  0.24947809     1.37500
O20         O  0.34908653  0.43809957  0.26573425    -0.57700
O21         O  0.42016364  0.46884195  0.22720193    -0.56500
C22         C  0.32434586  0.06164363  0.24702302     0.77200
O23         O  0.38423898  0.49758877  0.19995828    -0.58900
O24         O  0.31170482  0.46290435  0.23752907    -0.57400
O25         O  0.41966682  0.02677516  0.27252421    -0.57300
O26         O  0.32229311  0.04007649  0.26688624    -0.56500
O27         O  0.29228692  0.42672698  0.90860546    -0.57700
C28         C  0.22155472  0.37488437  0.96877531     0.74900
O29         O  0.26785864  0.31105777  0.90174970    -0.58900
C30         C  0.30598843  0.41391735  0.88655766     0.74900
C31         C  0.34485912  0.35885454  0.96087798     0.77300
Cd32       Cd  0.27901002  0.36726170  0.92835905     1.37500
O33         O  0.22999736  0.40032074  0.95299830    -0.57700
O34         O  0.32583983  0.38670658  0.96090013    -0.56500
C35         C  0.23890326  0.32288347  0.89040193     0.77200
O36         O  0.33258387  0.33307945  0.94662013    -0.58900
O37         O  0.24043727  0.34711982  0.96602115    -0.57400
O38         O  0.30720353  0.38069108  0.88456995    -0.57300
O39         O  0.22944025  0.35391600  0.89702850    -0.56500
O40         O  0.03612848  0.31380055  0.09923170    -0.57700
C41         C  0.47304678  0.35848913  0.03224229     0.74900
O42         O  0.02157119  0.42654576  0.10024478    -0.58900
C43         C  0.06377969  0.32452209  0.11286267     0.74900
C44         C  0.09258341  0.37832761  0.03813794     0.77300
Cd45       Cd  0.02971890  0.37025098  0.07321318     1.37500
O46         O  0.48105194  0.33491499  0.04991642    -0.57700
O47         O  0.07788381  0.34886643  0.04311118    -0.56500
C48         C  0.49329763  0.41584198  0.11251125     0.77200
O49         O  0.07755608  0.40538323  0.04890114    -0.58900
O50         O  0.49220890  0.38622678  0.03336264    -0.57400
O51         O  0.07451120  0.35555639  0.10816004    -0.57300
O52         O  0.48174994  0.38566300  0.10557040    -0.56500
O53         O  0.06884367  0.09688445  0.45047005    -0.57700
C54         C  0.48541170  0.08358183  0.38965576     0.74900
O55         O  0.46823425  0.16538130  0.44962201    -0.58900
C56         C  0.08352144  0.12366941  0.46185900     0.74900
C57         C  0.04615645  0.17693951  0.38470885     0.77300
Cd58       Cd  0.01922012  0.13194212  0.42764358     1.37500
O59         O  0.01657828  0.07638949  0.39996809    -0.57700
O60         O  0.04759935  0.14368646  0.38405686    -0.56500
C61         C  0.45864062  0.13977508  0.46480750     0.77200
O62         O  0.03179876  0.19099600  0.40605217    -0.58900
O63         O  0.47038488  0.11188228  0.39770566    -0.57400
O64         O  0.06720879  0.15278262  0.45858213    -0.57300
O65         O  0.47788315  0.11206198  0.46326856    -0.56500
O66         O  0.25894466  0.18685214  0.59950784    -0.57700
C67         C  0.33077879  0.13674873  0.53557079     0.74900
O68         O  0.28001946  0.07239442  0.59734941    -0.58900
C69         C  0.23300929  0.17365360  0.61338143     0.74900
C70         C  0.21123036  0.12186786  0.53390735     0.77300
Cd71       Cd  0.27039659  0.13025978  0.57336399     1.37500
O72         O  0.32169869  0.16280205  0.55088905    -0.57700
O73         O  0.22819489  0.15069383  0.53734501    -0.56500
C74         C  0.30668913  0.08382996  0.61178346     0.77200
O75         O  0.22215199  0.09628907  0.54875771    -0.58900
O76         O  0.31089080  0.10971313  0.53731581    -0.57400
O77         O  0.22542435  0.14169438  0.60835662    -0.57300
O78         O  0.31510722  0.11589290  0.60865466    -0.56500
O79         O  0.12433441  0.21468634  0.71263719    -0.57700
C80         C  0.06486859  0.31697953  0.74953114     0.74900
O81         O  0.09265805  0.19413700  0.76920766    -0.58900
C82         C  0.14694177  0.23506051  0.70131019     0.74900
C83         C  0.15511780  0.26490555  0.79928172     0.77300
Cd84       Cd  0.10793193  0.25317123  0.75168374     1.37500
O85         O  0.08736338  0.30947794  0.73058290    -0.57700
O86         O  0.16799863  0.26288758  0.77500399    -0.56500
C87         C  0.06133382  0.19271905  0.75795829     0.77200
O88         O  0.12129489  0.25991460  0.80125726    -0.58900
O89         O  0.06139025  0.29447716  0.76853076    -0.57400
O90         O  0.15197562  0.26456245  0.71326731    -0.57300
O91         O  0.05180483  0.21915253  0.74360101    -0.56500
O92         O  0.39998391  0.51094344  0.79883990    -0.57700
C93         C  0.47208559  0.06644991  0.75907975     0.74900
O94         O  0.45236497  0.44997488  0.72846544    -0.58900
C95         C  0.38278948  0.48204320  0.79795718     0.74900
C96         C  0.38571273  0.01900722  0.70170915     0.77300
Cd97       Cd  0.42748941  0.50372528  0.75177621     1.37500
O98         O  0.48504054  0.03569923  0.75699163    -0.57700
O99         O  0.37080379  0.01727907  0.72529697    -0.56500
C100        C  0.47508787  0.44287886  0.74762836     0.77200
O101        O  0.41957790  0.01282197  0.70119831    -0.58900
O102        O  0.43764633  0.06837457  0.75873751    -0.57400
O103        O  0.38539806  0.46456923  0.77555999    -0.57300
O104        O  0.47575055  0.46405607  0.76807743    -0.56500
C105        C  0.03781966  0.16119554  0.76069624    -0.06000
C106        C  0.05460543  0.12802221  0.76250254    -0.17200
C107        C  0.03422929  0.09673471  0.76273146     0.11200
C108        C  0.99561150  0.09847825  0.76100981    -0.06000
C109        C  0.97889477  0.13192745  0.76009990    -0.17200
C110        C  0.99938443  0.16306889  0.76027409     0.11200
S111        S  0.55864821  0.05517689  0.76448433    -0.32200
S112        S  0.97474371  0.20427800  0.76085866    -0.32200
H113        H  0.99921630  0.22134422  0.77914976     0.29200
H114        H  0.59369523  0.06909540  0.76894362     0.29200
H115        H  0.08406196  0.12658384  0.76282661     0.19800
H116        H  0.94946746  0.13398813  0.75923051     0.19800
C117        C  0.04342900  0.34999311  0.74933229    -0.06000
C118        C  0.03040609  0.36270726  0.72377753    -0.17200
C119        C  0.00885114  0.39319816  0.72232372     0.11200
C120        C  0.99912283  0.41123654  0.74708606    -0.06000
C121        C  0.01261956  0.39856336  0.77263946    -0.17200
C122        C  0.03502403  0.36870778  0.77400485     0.11200
S123        S  0.49638207  0.40844281  0.68814078    -0.32200
S124        S  0.05320189  0.35699584  0.80774116    -0.32200
H125        H  0.08752640  0.34634914  0.79790835     0.28400
H126        H  0.50520523  0.44386129  0.69395941     0.29200
H127        H  0.03710167  0.34878751  0.70473957     0.19800
H128        H  0.00591910  0.41216299  0.79181731     0.19800
C129        C  0.36538633  0.02977678  0.67631538    -0.06000
C130        C  0.38407994  0.04923091  0.65624294    -0.17200
C131        C  0.36575678  0.06457721  0.63376546     0.11200
C132        C  0.32750064  0.06162113  0.63152262    -0.06000
C133        C  0.30901968  0.03997391  0.65031183    -0.17200
C134        C  0.32768973  0.02350316  0.67235536     0.11200
S135        S  0.39284629  0.08755606  0.60852301    -0.32200
S136        S  0.30225788  0.99412401  0.69416886    -0.32200
H137        H  0.33129260  0.97039068  0.69844826     0.29200
H138        H  0.36990349  0.08005276  0.58567242     0.29200
H139        H  0.41315287  0.05338006  0.65842564     0.19800
H140        H  0.27982789  0.03663461  0.64828064     0.19800
C141        C  0.16718758  0.22403178  0.67609594    -0.06000
C142        C  0.20356009  0.23473770  0.67288602    -0.17200
C143        C  0.22578468  0.21971160  0.65223772     0.11200
C144        C  0.21128522  0.19362046  0.63412084    -0.06000
C145        C  0.17436848  0.18462418  0.63643535    -0.17200
C146        C  0.15215124  0.19995379  0.65662462     0.11200
S147        S  0.27276127  0.23314988  0.65147410    -0.32200
S148        S  0.10455511  0.18832823  0.65579592    -0.32200
H149        H  0.09216706  0.22189155  0.66419978     0.29200
H150        H  0.28658394  0.19874840  0.64809973     0.29200
H151        H  0.21538154  0.25339307  0.68753073     0.19800
H152        H  0.16250305  0.16551159  0.62217053     0.19800
C153        C  0.11797216  0.12159012  0.47811008    -0.06000
C154        C  0.12539125  0.09164581  0.49427489    -0.17200
C155        C  0.15608554  0.09010389  0.51190332     0.11200
C156        C  0.18009475  0.11934965  0.51376603    -0.06000
C157        C  0.17321928  0.14857437  0.49657410    -0.17200
C158        C  0.14301466  0.14986790  0.47873421     0.11200
S159        S  0.16189527  0.05069221  0.53216833    -0.32200
S160        S  0.13852013  0.18832268  0.45697091    -0.32200
H161        H  0.12628413  0.16953268  0.43333236     0.29200
H162        H  0.19720726  0.04427307  0.52213471     0.29200
H163        H  0.10663772  0.06962018  0.49374745     0.19800
H164        H  0.19151992  0.17094991  0.49699454     0.19800
C165        C  0.42593047  0.14070101  0.48274937    -0.06000
C166        C  0.40724669  0.10889184  0.48644017    -0.17200
C167        C  0.37654675  0.10675150  0.50327508     0.11200
C168        C  0.36309633  0.13747850  0.51688677    -0.06000
C169        C  0.38152016  0.16957756  0.51278279    -0.17200
C170        C  0.41275693  0.17145937  0.49613208     0.11200
S171        S  0.35679238  0.06348817  0.50651871    -0.32200
S172        S  0.43537205  0.21344052  0.49389267    -0.32200
H173        H  0.47065235  0.19920897  0.49649397     0.29200
H174        H  0.36015046  0.06336266  0.53569832     0.29200
H175        H  0.41680192  0.08511161  0.47613728     0.19800
H176        H  0.37194452  0.19337147  0.52298919     0.19800
C177        C  0.32057891  0.43586246  0.86405738    -0.06000
C178        C  0.34586154  0.46238536  0.87053405    -0.17200
C179        C  0.36613769  0.47868039  0.84959526     0.11200
C180        C  0.36070698  0.46855543  0.82137660    -0.06000
C181        C  0.33383134  0.44333426  0.81506990    -0.17200
C182        C  0.31355086  0.42733317  0.83590318     0.11200
S183        S  0.39990413  0.51028987  0.86061814    -0.32200
S184        S  0.27878369  0.39637632  0.82517697    -0.32200
H185        H  0.25559125  0.40287813  0.84780812     0.29200
H186        H  0.42809288  0.49438578  0.84531544     0.29200
H187        H  0.35149533  0.46889652  0.89214778     0.19800
H188        H  0.32849276  0.43584577  0.79360637     0.19800
C189        C  0.21714779  0.30261395  0.86977474    -0.06000
C190        C  0.23490298  0.28342557  0.84873697    -0.17200
C191        C  0.21536345  0.26914150  0.82606569     0.11200
C192        C  0.17731023  0.27469192  0.82404705    -0.06000
C193        C  0.15954619  0.29228220  0.84588418    -0.17200
C194        C  0.17882323  0.30579507  0.86869863     0.11200
S195        S  0.24047352  0.24402126  0.80065560    -0.32200
S196        S  0.15271108  0.32686159  0.89580397    -0.32200
H197        H  0.17570667  0.31596484  0.91771081     0.29200
H198        H  0.21307428  0.21854829  0.79661340     0.29200
H199        H  0.26421579  0.28051500  0.84947538     0.19800
H200        H  0.13036233  0.29634860  0.84495474     0.19800
C201        C  0.37963447  0.35720469  0.97671500    -0.06000
C202        C  0.38883288  0.32647910  0.99138581    -0.17200
C203        C  0.41982483  0.32516451  0.00875091     0.11200
C204        C  0.44219158  0.35546329  0.01190845    -0.06000
C205        C  0.43352982  0.38555422  0.99615493    -0.17200
C206        C  0.40304709  0.38667739  0.97862234     0.11200
S207        S  0.42865084  0.28420243  0.02635775    -0.32200
S208        S  0.39611050  0.42660095  0.95894248    -0.32200
H209        H  0.38271973  0.40952458  0.93488041     0.29200
H210        H  0.46556958  0.28322831  0.01878339     0.29200
H211        H  0.37133526  0.30360511  0.98981774     0.19800
H212        H  0.45039767  0.40888067  0.99765760     0.19800
C213        C  0.19041011  0.37703086  0.98855668    -0.06000
C214        C  0.16566119  0.40537073  0.98619992    -0.17200
C215        C  0.13360680  0.40677925  0.00193060     0.11200
C216        C  0.12628143  0.37989338  0.02128579    -0.06000
C217        C  0.15158963  0.35237497  0.02445326    -0.17200
C218        C  0.18337653  0.35049250  0.00851182     0.11200
S219        S  0.10193025  0.44195335  0.99462735    -0.32200
S220        S  0.21421889  0.31386615  0.01439004    -0.32200
H221        H  0.19495840  0.29767816  0.03600670     0.29200
H222        H  0.07074177  0.42057594  0.99605618     0.29200
H223        H  0.17035282  0.42581066  0.97103178     0.19800
H224        H  0.14619418  0.33200220  0.03946110     0.19800
C225        C  0.46765000  0.06124367  0.36833490    -0.06000
C226        C  0.48768527  0.05111132  0.34487240    -0.17200
C227        C  0.47054569  0.03599420  0.32151048     0.11200
C228        C  0.43248082  0.03010418  0.32173348    -0.06000
C229        C  0.41288362  0.03870347  0.34582659    -0.17200
C230        C  0.42987905  0.05441203  0.36890720     0.11200
S231        S  0.49861503  0.52564320  0.29196791    -0.32200
S232        S  0.40161623  0.06612865  0.39812012    -0.32200
H233        H  0.42874465  0.06097737  0.41854670     0.29200
H234        H  0.48001897  0.49440251  0.28489570     0.29200
H235        H  0.01669239  0.05669405  0.34409056     0.19800
H236        H  0.38372067  0.03450182  0.34629321     0.19800
C237        C  0.43291032  0.46526390  0.17833064    -0.06000
C238        C  0.47107231  0.46345810  0.18017452    -0.17200
C239        C  0.49181874  0.44917652  0.15840660     0.11200
C240        C  0.47412870  0.43639819  0.13414162    -0.06000
C241        C  0.43612726  0.43915426  0.13201389    -0.17200
C242        C  0.41542741  0.45326526  0.15371258     0.11200
S243        S  0.04042011  0.44680825  0.16324922    -0.32200
S244        S  0.36664825  0.45239242  0.14957114    -0.32200
H245        H  0.36076214  0.43970376  0.17654057     0.29200
H246        H  0.04438027  0.41297922  0.15143563     0.29200
H247        H  0.48476308  0.47250878  0.19895050     0.19800
H248        H  0.42228349  0.42893406  0.11365746     0.19800
C249        C  0.25284506  0.34227859  0.25644076    -0.06000
C250        C  0.25121776  0.36397314  0.23283516    -0.17200
C251        C  0.27258523  0.39430366  0.23061150     0.11200
C252        C  0.29614557  0.40421984  0.25277326    -0.06000
C253        C  0.29758867  0.38277188  0.27653404    -0.17200
C254        C  0.27664112  0.35197263  0.27853521     0.11200
S255        S  0.26952827  0.41789477  0.19826454    -0.32200
S256        S  0.28283805  0.32579686  0.30936098    -0.32200
H257        H  0.28667080  0.29384397  0.29457975     0.29200
H258        H  0.30740470  0.42065441  0.19566094     0.29200
H259        H  0.23338959  0.35702596  0.21557872     0.19800
H260        H  0.31553413  0.38983596  0.29367876     0.19800
C261        C  0.30320235  0.09487560  0.24709925    -0.06000
C262        C  0.28654749  0.10634112  0.22236473    -0.17200
C263        C  0.26391014  0.13621936  0.22202155     0.11200
C264        C  0.25721355  0.15497438  0.24710793    -0.06000
C265        C  0.27489341  0.14396206  0.27159084    -0.17200
C266        C  0.29809523  0.11467709  0.27177573     0.11200
S267        S  0.24539940  0.14935683  0.18880612    -0.32200
S268        S  0.32153542  0.10487917  0.30397744    -0.32200
H269        H  0.35425727  0.09420527  0.29137072     0.29200
H270        H  0.25180437  0.18557699  0.19316543     0.29200
H271        H  0.29086133  0.09169797  0.20321802     0.19800
H272        H  0.27070332  0.15834405  0.29086754     0.19800
C273        C  0.06189519  0.19720822  0.36165237    -0.06000
C274        C  0.08637381  0.22464134  0.36764533    -0.17200
C275        C  0.10986268  0.23746855  0.34712624     0.11200
C276        C  0.10832946  0.22305292  0.31981830    -0.06000
C277        C  0.08182661  0.19748800  0.31362230    -0.17200
C278        C  0.05849050  0.18482468  0.33398042     0.11200
S279        S  0.14322162  0.26961986  0.35789502    -0.32200
S280        S  0.02528554  0.15223015  0.32338842    -0.32200
H281        H  0.99923978  0.16194194  0.34335674     0.29200
H282        H  0.17265462  0.25111414  0.34614015     0.29200
H283        H  0.08936102  0.23406916  0.38888036     0.19800
H284        H  0.07945931  0.18683603  0.29269672     0.19800
C285        C  0.08297904  0.30269402  0.13357989    -0.06000
C286        C  0.06311945  0.28693351  0.15496109    -0.17200
C287        C  0.08092523  0.27159456  0.17785288     0.11200
C288        C  0.11942144  0.27242680  0.17960343    -0.06000
C289        C  0.13907502  0.28631488  0.15727369    -0.17200
C290        C  0.12136237  0.30116724  0.13434922     0.11200
S291        S  0.05302084  0.25145149  0.20395982    -0.32200
S292        S  0.14932641  0.31822547  0.10684859    -0.32200
H293        H  0.12441241  0.31024857  0.08534247     0.29200
H294        H  0.07715757  0.22322410  0.20886965     0.29200
H295        H  0.03366480  0.28773361  0.15435502     0.19800
H296        H  0.16854844  0.28673147  0.15803608     0.19800
O297        O  0.20572748  0.69023787  0.23246813    -0.57700
C298        C  0.14028992  0.76190632  0.20475868     0.74900
O299        O  0.15073161  0.76152226  0.29641555    -0.58900
C300        C  0.23231304  0.68586298  0.24893763     0.74900
C301        C  0.22976716  0.80995122  0.25641385     0.77300
Cd302      Cd  0.18463954  0.74692849  0.25308749     1.37500
O303        O  0.17291550  0.75141323  0.20304906    -0.57700
O304        O  0.21763265  0.79717293  0.23385464    -0.56500
C305        C  0.13413026  0.73231710  0.29739350     0.77200
O306        O  0.22067818  0.79375174  0.27823337    -0.58900
O307        O  0.12750842  0.76464974  0.22906745    -0.57400
O308        O  0.23632877  0.70928176  0.26757628    -0.57300
O309        O  0.14063263  0.71077880  0.27781056    -0.56500
O310        O  0.38364959  0.49848394  0.29940392    -0.57700
C311        C  0.31963033  0.93612007  0.25198431     0.74900
O312        O  0.34539980  0.55327351  0.22733340    -0.58900
C313        C  0.41163264  0.51762329  0.29702093     0.74900
C314        C  0.41192467  0.97790495  0.20265336     0.77300
Cd315      Cd  0.36700807  0.49765756  0.24945183     1.37500
O316        O  0.34907205  0.93804903  0.26577017    -0.57700
O317        O  0.42027364  0.96896153  0.22723148    -0.56500
C318        C  0.32433642  0.56167301  0.24703147     0.77200
O319        O  0.38408489  0.99735878  0.19996497    -0.58900
O320        O  0.31161581  0.96294126  0.23766932    -0.57400
O321        O  0.41967180  0.52674760  0.27254463    -0.57300
O322        O  0.32221071  0.54003807  0.26684396    -0.56500
O323        O  0.29234089  0.92683021  0.90860406    -0.57700
C324        C  0.22158842  0.87484529  0.96867389     0.74900
O325        O  0.26793213  0.81112408  0.90170063    -0.58900
C326        C  0.30600980  0.91404745  0.88653516     0.74900
C327        C  0.34487735  0.85887112  0.96087875     0.77300
Cd328      Cd  0.27908150  0.86732098  0.92829926     1.37500
O329        O  0.23010163  0.90034717  0.95298484    -0.57700
O330        O  0.32580387  0.88668732  0.96095566    -0.56500
C331        C  0.23902002  0.82297639  0.89030543     0.77200
O332        O  0.33269315  0.83314443  0.94652145    -0.58900
O333        O  0.24040434  0.84705246  0.96583869    -0.57400
O334        O  0.30723182  0.88082447  0.88452190    -0.57300
O335        O  0.22957841  0.85402886  0.89689343    -0.56500
O336        O  0.03621024  0.81381308  0.09920174    -0.57700
C337        C  0.47303467  0.85847854  0.03228142     0.74900
O338        O  0.02164631  0.92663247  0.10021857    -0.58900
C339        C  0.06385483  0.82451965  0.11284732     0.74900
C340        C  0.09273610  0.87832400  0.03816187     0.77300
Cd341      Cd  0.02982711  0.87030460  0.07321238     1.37500
O342        O  0.48110215  0.83487389  0.04991356    -0.57700
O343        O  0.07797438  0.84888253  0.04309635    -0.56500
C344        C  0.49328673  0.91584431  0.11249956     0.77200
O345        O  0.07777244  0.90538647  0.04896762    -0.58900
O346        O  0.49216415  0.88623559  0.03341800    -0.57400
O347        O  0.07458145  0.85556186  0.10817241    -0.57300
O348        O  0.48186784  0.88557722  0.10567570    -0.56500
O349        O  0.06890745  0.59680015  0.45047708    -0.57700
C350        C  0.48544348  0.58351243  0.38966497     0.74900
O351        O  0.46832633  0.66536917  0.44964125    -0.58900
C352        C  0.08353518  0.62358931  0.46189761     0.74900
C353        C  0.04616865  0.67691406  0.38470126     0.77300
Cd354      Cd  0.01928622  0.63186671  0.42763669     1.37500
O355        O  0.01676285  0.57642046  0.39982322    -0.57700
O356        O  0.04774105  0.64366597  0.38407459    -0.56500
C357        C  0.45869884  0.63974709  0.46479839     0.77200
O358        O  0.03170798  0.69094167  0.40601459    -0.58900
O359        O  0.47034844  0.61173668  0.39780581    -0.57400
O360        O  0.06718454  0.65268490  0.45863715    -0.57300
O361        O  0.47791496  0.61201755  0.46323162    -0.56500
O362        O  0.25899359  0.68698286  0.59941996    -0.57700
C363        C  0.33076472  0.63674276  0.53549159     0.74900
O364        O  0.27999284  0.57245563  0.59739144    -0.58900
C365        C  0.23306187  0.67380642  0.61331210     0.74900
C366        C  0.21121872  0.62194356  0.53397034     0.77300
Cd367      Cd  0.27044353  0.63031512  0.57335740     1.37500
O368        O  0.32184207  0.66272971  0.55093281    -0.57700
O369        O  0.22810765  0.65080364  0.53745491    -0.56500
C370        C  0.30666877  0.58387660  0.61182507     0.77200
O371        O  0.22223992  0.59633502  0.54874684    -0.58900
O372        O  0.31074050  0.60978886  0.53713252    -0.57400
O373        O  0.22549148  0.64183206  0.60833889    -0.57300
O374        O  0.31512711  0.61592503  0.60867072    -0.56500
O375        O  0.12420900  0.71488581  0.71245705    -0.57700
C376        C  0.06485985  0.81702158  0.74958988     0.74900
O377        O  0.09281734  0.69413666  0.76913025    -0.58900
C378        C  0.14695792  0.73519435  0.70122396     0.74900
C379        C  0.15519616  0.76496229  0.79923063     0.77300
Cd380      Cd  0.10798638  0.75323532  0.75164387     1.37500
O381        O  0.08742627  0.80961303  0.73067027    -0.57700
O382        O  0.16802949  0.76311730  0.77493035    -0.56500
C383        C  0.06149693  0.69269345  0.75787247     0.77200
O384        O  0.12140779  0.75977752  0.80124230    -0.58900
O385        O  0.06133251  0.79443836  0.76852379    -0.57400
O386        O  0.15214198  0.76459912  0.71329306    -0.57300
O387        O  0.05194590  0.71912180  0.74351733    -0.56500
O388        O  0.40001280  0.01091579  0.79875559    -0.57700
C389        C  0.47213378  0.56647608  0.75921731     0.74900
O390        O  0.45216742  0.94977341  0.72852386    -0.58900
C391        C  0.38276633  0.98204525  0.79788119     0.74900
C392        C  0.38568930  0.51909794  0.70179927     0.77300
Cd393      Cd  0.42745948  0.00367257  0.75169214     1.37500
O394        O  0.48508481  0.53572416  0.75712636    -0.57700
O395        O  0.37079238  0.51730803  0.72538888    -0.56500
C396        C  0.47506376  0.94284498  0.74760557     0.77200
O397        O  0.41956514  0.51296905  0.70128555    -0.58900
O398        O  0.43769630  0.56840600  0.75888342    -0.57400
O399        O  0.38532213  0.96456439  0.77548437    -0.57300
O400        O  0.47588926  0.96417492  0.76795291    -0.56500
C401        C  0.03798351  0.66117160  0.76062701    -0.06000
C402        C  0.05473261  0.62797622  0.76234190    -0.17200
C403        C  0.03432000  0.59671105  0.76263336     0.11200
C404        C  0.99568737  0.59850465  0.76104659    -0.06000
C405        C  0.97902138  0.63197677  0.76021758    -0.17200
C406        C  0.99954609  0.66309308  0.76034391     0.11200
S407        S  0.55872023  0.55521130  0.76447979    -0.32200
S408        S  0.97498125  0.70434177  0.76105347    -0.32200
H409        H  0.99958533  0.72134776  0.77927659     0.29200
H410        H  0.59348155  0.56917138  0.77010332     0.29200
H411        H  0.08420050  0.62650950  0.76256939     0.19800
H412        H  0.94956163  0.63407828  0.75945170     0.19800
C413        C  0.04338973  0.85001625  0.74941523    -0.06000
C414        C  0.03042856  0.86277399  0.72385818    -0.17200
C415        C  0.00886156  0.89325084  0.72240512     0.11200
C416        C  0.99906498  0.91124035  0.74717022    -0.06000
C417        C  0.01250512  0.89853599  0.77273128    -0.17200
C418        C  0.03491132  0.86867934  0.77409851     0.11200
S419        S  0.49611976  0.90822935  0.68814793    -0.32200
S420        S  0.05299961  0.85690047  0.80784676    -0.32200
H421        H  0.08734497  0.84625829  0.79805400     0.28400
H422        H  0.50480068  0.94370122  0.69388427     0.29200
H423        H  0.03718605  0.84889622  0.70481136     0.19800
H424        H  0.00575585  0.91211017  0.79191213     0.19800
C425        C  0.36533978  0.52986138  0.67640509    -0.06000
C426        C  0.38404140  0.54923513  0.65628581    -0.17200
C427        C  0.36571869  0.56455711  0.63379539     0.11200
C428        C  0.32745585  0.56166693  0.63158330    -0.06000
C429        C  0.30895954  0.54009257  0.65041579    -0.17200
C430        C  0.32762544  0.52364054  0.67247335     0.11200
S431        S  0.39281506  0.58740562  0.60848341    -0.32200
S432        S  0.30215789  0.49435423  0.69433971    -0.32200
H433        H  0.33114460  0.47056700  0.69862146     0.29200
H434        H  0.36981714  0.57988768  0.58566689     0.29200
H435        H  0.41312649  0.55333440  0.65843563     0.19800
H436        H  0.27976016  0.53679590  0.64840607     0.19800
C437        C  0.16721143  0.72419049  0.67600195    -0.06000
C438        C  0.20361362  0.73483438  0.67284467    -0.17200
C439        C  0.22585139  0.71980782  0.65220526     0.11200
C440        C  0.21132601  0.69380784  0.63402120    -0.06000
C441        C  0.17438324  0.68488720  0.63627198    -0.17200
C442        C  0.15216302  0.70018573  0.65647506     0.11200
S443        S  0.27288059  0.73309066  0.65155825    -0.32200
S444        S  0.10456255  0.68858162  0.65560699    -0.32200
H445        H  0.09218825  0.72214630  0.66401746     0.29200
H446        H  0.28659916  0.69866692  0.64807754     0.29200
H447        H  0.21545231  0.75342433  0.68753530     0.19800
H448        H  0.16251002  0.66583315  0.62196166     0.19800
C449        C  0.11797852  0.62154855  0.47815881    -0.06000
C450        C  0.12546881  0.59158812  0.49428752    -0.17200
C451        C  0.15614836  0.59009870  0.51193492     0.11200
C452        C  0.18006953  0.61940786  0.51384634    -0.06000
C453        C  0.17311619  0.64865677  0.49669892    -0.17200
C454        C  0.14293380  0.64989671  0.47883727     0.11200
S455        S  0.16204260  0.55067455  0.53217236    -0.32200
S456        S  0.13836019  0.68837507  0.45710779    -0.32200
H457        H  0.12625416  0.66957830  0.43343309     0.29200
H458        H  0.19734809  0.54431238  0.52210392     0.29200
H459        H  0.10678153  0.56951215  0.49372041     0.19800
H460        H  0.19134674  0.67108398  0.49716046     0.19800
C461        C  0.42596909  0.64067214  0.48272597    -0.06000
C462        C  0.40726435  0.60886695  0.48639350    -0.17200
C463        C  0.37652606  0.60673434  0.50319196     0.11200
C464        C  0.36307050  0.63746180  0.51679815    -0.06000
C465        C  0.38150147  0.66955670  0.51270585    -0.17200
C466        C  0.41276740  0.67143485  0.49608952     0.11200
S467        S  0.35674435  0.56348051  0.50641649    -0.32200
S468        S  0.43536404  0.71342573  0.49386152    -0.32200
H469        H  0.47064641  0.69921209  0.49650250     0.29200
H470        H  0.35993669  0.56339424  0.53560599     0.29200
H471        H  0.41683035  0.58508459  0.47609898     0.19800
H472        H  0.37190689  0.69335473  0.52289827     0.19800
C473        C  0.32055437  0.93601087  0.86403258    -0.06000
C474        C  0.34592373  0.96246295  0.87048683    -0.17200
C475        C  0.36621120  0.97869945  0.84952780     0.11200
C476        C  0.36068507  0.96860531  0.82131396    -0.06000
C477        C  0.33371698  0.94346845  0.81503000    -0.17200
C478        C  0.31343585  0.92751439  0.83588547     0.11200
S479        S  0.40015154  0.01015249  0.86051786    -0.32200
S480        S  0.27856555  0.89664053  0.82520426    -0.32200
H481        H  0.25545640  0.90317432  0.84788033     0.29200
H482        H  0.42822451  0.99414967  0.84515259     0.29200
H483        H  0.35163201  0.96893900  0.89209533     0.19800
H484        H  0.32831418  0.93600418  0.79357010     0.19800
C485        C  0.21727493  0.80270266  0.86968168    -0.06000
C486        C  0.23503091  0.78360259  0.84859764    -0.17200
C487        C  0.21547368  0.76930511  0.82594257     0.11200
C488        C  0.17740352  0.77476736  0.82398200    -0.06000
C489        C  0.15964362  0.79227840  0.84586113    -0.17200
C490        C  0.17894210  0.80579049  0.86866771     0.11200
S491        S  0.24057412  0.74425205  0.80048624    -0.32200
S492        S  0.15285715  0.82670466  0.89586171    -0.32200
H493        H  0.17598439  0.81586439  0.91770645     0.29200
H494        H  0.21320064  0.71875333  0.79644022     0.29200
H495        H  0.26435392  0.78076116  0.84929446     0.19800
H496        H  0.13044618  0.79627029  0.84497486     0.19800
C497        C  0.37961965  0.85721921  0.97675535    -0.06000
C498        C  0.38883378  0.82647428  0.99139664    -0.17200
C499        C  0.41981585  0.82515487  0.00877403     0.11200
C500        C  0.44215324  0.85546903  0.01197154    -0.06000
C501        C  0.43345214  0.88559191  0.99626964    -0.17200
C502        C  0.40298488  0.88671905  0.97872624     0.11200
S503        S  0.42867934  0.78416722  0.02633356    -0.32200
S504        S  0.39600860  0.92668406  0.95910783    -0.32200
H505        H  0.38271579  0.90964285  0.93499870     0.29200
H506        H  0.46559040  0.78322591  0.01873620     0.29200
H507        H  0.37136052  0.80358262  0.98978806     0.19800
H508        H  0.45028593  0.90893780  0.99781193     0.19800
C509        C  0.19045139  0.87696295  0.98845898    -0.06000
C510        C  0.16570472  0.90530525  0.98612382    -0.17200
C511        C  0.13368371  0.90672512  0.00189053     0.11200
C512        C  0.12640685  0.87986544  0.02127787    -0.06000
C513        C  0.15170071  0.85232611  0.02440947    -0.17200
C514        C  0.18343198  0.85040740  0.00840303     0.11200
S515        S  0.10197934  0.94187734  0.99458678    -0.32200
S516        S  0.21421689  0.81370773  0.01417820    -0.32200
H517        H  0.19475521  0.79726371  0.03556671     0.29200
H518        H  0.07078139  0.92053287  0.99615745     0.29200
H519        H  0.17036826  0.92573634  0.97094266     0.19800
H520        H  0.14633238  0.83196877  0.03943121     0.19800
C521        C  0.46767486  0.56116917  0.36834642    -0.06000
C522        C  0.48768426  0.55109043  0.34485723    -0.17200
C523        C  0.47053276  0.53595593  0.32150847     0.11200
C524        C  0.43247556  0.53002751  0.32175624    -0.06000
C525        C  0.41290570  0.53856221  0.34587765    -0.17200
C526        C  0.42991949  0.55426085  0.36895734     0.11200
S527        S  0.49864763  0.02568461  0.29198031    -0.32200
S528        S  0.40170696  0.56584881  0.39822886    -0.32200
H529        H  0.42889141  0.56064385  0.41860410     0.29200
H530        H  0.48002792  0.99447142  0.28487079     0.29200
H531        H  0.01670363  0.55673494  0.34403902     0.19800
H532        H  0.38375110  0.53431331  0.34637078     0.19800
C533        C  0.43288771  0.96522494  0.17833564    -0.06000
C534        C  0.47106134  0.96355650  0.18012386    -0.17200
C535        C  0.49180345  0.94930199  0.15833998     0.11200
C536        C  0.47410050  0.93641267  0.13411696    -0.06000
C537        C  0.43608626  0.93904363  0.13203972    -0.17200
C538        C  0.41539147  0.95312189  0.15375451     0.11200
S539        S  0.04046818  0.94666644  0.16332221    -0.32200
S540        S  0.36660813  0.95202984  0.14970637    -0.32200
H541        H  0.36093054  0.93919684  0.17666121     0.29200
H542        H  0.04438319  0.91287778  0.15142768     0.29200
H543        H  0.48476672  0.97269019  0.19886756     0.19800
H544        H  0.42223236  0.92873426  0.11371799     0.19800
C545        C  0.25278174  0.84228962  0.25647606    -0.06000
C546        C  0.25119976  0.86397244  0.23286378    -0.17200
C547        C  0.27254725  0.89431896  0.23066986     0.11200
C548        C  0.29605631  0.90424602  0.25286149    -0.06000
C549        C  0.29744249  0.88281657  0.27663205    -0.17200
C550        C  0.27650051  0.85201284  0.27861054     0.11200
S551        S  0.26953477  0.91791722  0.19832375    -0.32200
S552        S  0.28261353  0.82585909  0.30945690    -0.32200
H553        H  0.28650592  0.79389901  0.29469446     0.29200
H554        H  0.30740901  0.92076345  0.19578328     0.29200
H555        H  0.23341987  0.85700502  0.21558131     0.19800
H556        H  0.31534402  0.88989748  0.29380092     0.19800
C557        C  0.30317328  0.59489100  0.24712337    -0.06000
C558        C  0.28654953  0.60638199  0.22238526    -0.17200
C559        C  0.26388837  0.63624138  0.22205013     0.11200
C560        C  0.25714358  0.65495545  0.24714693    -0.06000
C561        C  0.27478124  0.64391156  0.27163803    -0.17200
C562        C  0.29800386  0.61464279  0.27181625     0.11200
S563        S  0.24540812  0.64940766  0.18883250    -0.32200
S564        S  0.32139378  0.60480399  0.30403037    -0.32200
H565        H  0.35414351  0.59417290  0.29144410     0.29200
H566        H  0.25183834  0.68562035  0.19320989     0.29200
H567        H  0.29090513  0.59177133  0.20322889     0.19800
H568        H  0.27054721  0.65825992  0.29092457     0.19800
C569        C  0.06187090  0.69721200  0.36164701    -0.06000
C570        C  0.08637488  0.72462243  0.36763848    -0.17200
C571        C  0.10984210  0.73745902  0.34710915     0.11200
C572        C  0.10828343  0.72305416  0.31979808    -0.06000
C573        C  0.08175471  0.69751220  0.31360509    -0.17200
C574        C  0.05842118  0.68485958  0.33397058     0.11200
S575        S  0.14318976  0.76963053  0.35785945    -0.32200
S576        S  0.02514938  0.65232662  0.32338814    -0.32200
H577        H  0.99915409  0.66205969  0.34338895     0.29200
H578        H  0.17263198  0.75109851  0.34614300     0.29200
H579        H  0.08939115  0.73403143  0.38887787     0.19800
H580        H  0.07936008  0.68687513  0.29267547     0.19800
C581        C  0.08304893  0.80267629  0.13355726    -0.06000
C582        C  0.06317906  0.78686304  0.15490934    -0.17200
C583        C  0.08097309  0.77155105  0.17781803     0.11200
C584        C  0.11946260  0.77247432  0.17961621    -0.06000
C585        C  0.13913186  0.78641444  0.15731634    -0.17200
C586        C  0.12143395  0.80121784  0.13436792     0.11200
S587        S  0.05306499  0.75132620  0.20388377    -0.32200
S588        S  0.14941955  0.81828361  0.10688325    -0.32200
H589        H  0.12453715  0.81028090  0.08536148     0.29200
H590        H  0.07726507  0.72315789  0.20882309     0.29200
H591        H  0.03372432  0.78760463  0.15426950     0.19800
H592        H  0.16860216  0.78689325  0.15811431     0.19800
O593        O  0.70580614  0.19029419  0.23248617    -0.57700
C594        C  0.64028728  0.26193453  0.20481983     0.74900
O595        O  0.65077408  0.26159212  0.29642310    -0.58900
C596        C  0.73240347  0.18591676  0.24894430     0.74900
C597        C  0.72977861  0.31002859  0.25648077     0.77300
Cd598      Cd  0.68470732  0.24697346  0.25312324     1.37500
O599        O  0.67293104  0.25149831  0.20308241    -0.57700
O600        O  0.71757123  0.29730137  0.23392631    -0.56500
C601        C  0.63422529  0.23236138  0.29742847     0.77200
O602        O  0.72078888  0.29375904  0.27829249    -0.58900
O603        O  0.62753386  0.26462346  0.22914007    -0.57400
O604        O  0.73643003  0.20933812  0.26757976    -0.57300
O605        O  0.64077742  0.21079091  0.27787808    -0.56500
O606        O  0.88376764  0.99841149  0.29938235    -0.57700
C607        C  0.81968680  0.43616304  0.25195435     0.74900
O608        O  0.84542914  0.05327178  0.22731409    -0.58900
C609        C  0.91169779  0.01762539  0.29700172     0.74900
C610        C  0.91193899  0.47795876  0.20261251     0.77300
Cd611      Cd  0.86705994  0.99767588  0.24944705     1.37500
O612        O  0.84916235  0.43807139  0.26569888    -0.57700
O613        O  0.92033084  0.46907676  0.22719572    -0.56500
C614        C  0.82441912  0.06170895  0.24703688     0.77200
O615        O  0.88407098  0.49737471  0.19991846    -0.58900
O616        O  0.81164345  0.46300208  0.23766898    -0.57400
O617        O  0.91967790  0.02683367  0.27253367    -0.57300
O618        O  0.82234629  0.04011142  0.26687825    -0.56500
O619        O  0.79233710  0.42676550  0.90865577    -0.57700
C620        C  0.72153554  0.37478197  0.96872773     0.74900
O621        O  0.76793491  0.31107259  0.90165426    -0.58900
C622        C  0.80586968  0.41399834  0.88653153     0.74900
C623        C  0.84486808  0.35883702  0.96080120     0.77300
Cd624      Cd  0.77900051  0.36725492  0.92830935     1.37500
O625        O  0.72994480  0.40023741  0.95295915    -0.57700
O626        O  0.82581158  0.38666417  0.96087217    -0.56500
C627        C  0.73895844  0.32287195  0.89032087     0.77200
O628        O  0.83263589  0.33309080  0.94648944    -0.58900
O629        O  0.74046744  0.34705073  0.96596972    -0.57400
O630        O  0.80697053  0.38077755  0.88446405    -0.57300
O631        O  0.72942728  0.35387091  0.89699072    -0.56500
O632        O  0.53605773  0.31388419  0.09934594    -0.57700
C633        C  0.97299681  0.35841933  0.03221654     0.74900
O634        O  0.52176181  0.42656780  0.10038537    -0.58900
C635        C  0.56372533  0.32458258  0.11296764     0.74900
C636        C  0.59262157  0.37829772  0.03817817     0.77300
Cd637      Cd  0.52975186  0.37032047  0.07326431     1.37500
O638        O  0.98108389  0.33478429  0.04981837    -0.57700
O639        O  0.57784728  0.34886482  0.04312935    -0.56500
C640        C  0.99326004  0.41570531  0.11251363     0.77200
O641        O  0.57767142  0.40537247  0.04897624    -0.58900
O642        O  0.99208061  0.38620154  0.03340500    -0.57400
O643        O  0.57449823  0.35559496  0.10824061    -0.57300
O644        O  0.98188033  0.38541318  0.10571938    -0.56500
O645        O  0.56880286  0.09688087  0.45042943    -0.57700
C646        C  0.98548097  0.08354097  0.38962728     0.74900
O647        O  0.96827654  0.16529272  0.44968060    -0.58900
C648        C  0.58348075  0.12365124  0.46183961     0.74900
C649        C  0.54615826  0.17702738  0.38469444     0.77300
Cd650      Cd  0.51920608  0.13200784  0.42762235     1.37500
O651        O  0.51656078  0.07647544  0.39992281    -0.57700
O652        O  0.54754424  0.14377318  0.38400985    -0.56500
C653        C  0.95858596  0.13963676  0.46477663     0.77200
O654        O  0.53184793  0.19107163  0.40606069    -0.58900
O655        O  0.97048052  0.11188405  0.39761428    -0.57400
O656        O  0.56717927  0.15277119  0.45857207    -0.57300
O657        O  0.97776663  0.11188783  0.46317834    -0.56500
O658        O  0.75890614  0.18693927  0.59938549    -0.57700
C659        C  0.83068197  0.13666506  0.53549473     0.74900
O660        O  0.77996847  0.07246325  0.59739000    -0.58900
C661        C  0.73302544  0.17374457  0.61332092     0.74900
C662        C  0.71113583  0.12183156  0.53393512     0.77300
Cd663      Cd  0.77034529  0.13026746  0.57333860     1.37500
O664        O  0.82170764  0.16269323  0.55087527    -0.57700
O665        O  0.72806821  0.15067308  0.53738898    -0.56500
C666        C  0.80659866  0.08394648  0.61184366     0.77200
O667        O  0.72208348  0.09624965  0.54877160    -0.58900
O668        O  0.81070887  0.10968312  0.53719580    -0.57400
O669        O  0.72546824  0.14176275  0.60836414    -0.57300
O670        O  0.81500636  0.11600659  0.60868490    -0.56500
O671        O  0.62425245  0.21485121  0.71247600    -0.57700
C672        C  0.56480589  0.31695788  0.74950105     0.74900
O673        O  0.59272072  0.19413408  0.76912595    -0.58900
C674        C  0.64696054  0.23518504  0.70122280     0.74900
C675        C  0.65516743  0.26498488  0.79916326     0.77300
Cd676      Cd  0.60793854  0.25320481  0.75160039     1.37500
O677        O  0.58737562  0.30954823  0.73058365    -0.57700
O678        O  0.66800882  0.26299135  0.77487266    -0.56500
C679        C  0.56142245  0.19267495  0.75783411     0.77200
O680        O  0.62135564  0.25993783  0.80117098    -0.58900
O681        O  0.56128094  0.29438380  0.76844173    -0.57400
O682        O  0.65208656  0.26462250  0.71325598    -0.57300
O683        O  0.55189910  0.21908347  0.74344672    -0.56500
O684        O  0.89984586  0.51101445  0.79881374    -0.57700
C685        C  0.97205897  0.06645355  0.75915321     0.74900
O686        O  0.95233324  0.44995072  0.72847379    -0.58900
C687        C  0.88266818  0.48210460  0.79794698     0.74900
C688        C  0.88559262  0.01910602  0.70181033     0.77300
Cd689      Cd  0.92744195  0.50372318  0.75178975     1.37500
O690        O  0.98501996  0.03568761  0.75722009    -0.57700
O691        O  0.87069962  0.01731138  0.72540144    -0.56500
C692        C  0.97508926  0.44288155  0.74762120     0.77200
O693        O  0.91945970  0.01292562  0.70127943    -0.58900
O694        O  0.93762517  0.06838546  0.75867150    -0.57400
O695        O  0.88533234  0.46458175  0.77557833    -0.57300
O696        O  0.97574638  0.46406980  0.76806355    -0.56500
C697        C  0.53791175  0.16114976  0.76057439    -0.06000
C698        C  0.55467913  0.12796508  0.76231945    -0.17200
C699        C  0.53428215  0.09668761  0.76257686     0.11200
C700        C  0.49565265  0.09846495  0.76094089    -0.06000
C701        C  0.47896668  0.13192660  0.76009081    -0.17200
C702        C  0.49947532  0.16305266  0.76024201     0.11200
S703        S  0.05865192  0.05526215  0.76459318    -0.32200
S704        S  0.47488594  0.20428782  0.76092605    -0.32200
H705        H  0.49946251  0.22131531  0.77915812     0.29200
H706        H  0.09332049  0.06924210  0.77053043     0.29200
H707        H  0.58413709  0.12652855  0.76262384     0.19800
H708        H  0.44951075  0.13401096  0.75928412     0.19800
C709        C  0.54333845  0.34995078  0.74932819    -0.06000
C710        C  0.53045227  0.36276782  0.72376701    -0.17200
C711        C  0.50891842  0.39326918  0.72232337     0.11200
C712        C  0.49907434  0.41121186  0.74709840    -0.06000
C713        C  0.51240743  0.39842391  0.77266279    -0.17200
C714        C  0.53479335  0.36855713  0.77402292     0.11200
S715        S  0.99612626  0.40822249  0.68813873    -0.32200
S716        S  0.55278317  0.35670433  0.80778411    -0.32200
H717        H  0.58719012  0.34618549  0.79803430     0.28400
H718        H  0.00495177  0.44367007  0.69383839     0.29200
H719        H  0.53724941  0.34892725  0.70471458     0.19800
H720        H  0.50560097  0.41194821  0.79185132     0.19800
C721        C  0.86525112  0.02993819  0.67643491    -0.06000
C722        C  0.88395259  0.04938999  0.65636365    -0.17200
C723        C  0.86564322  0.06472441  0.63387389     0.11200
C724        C  0.82738691  0.06178633  0.63162801    -0.06000
C725        C  0.80888905  0.04017366  0.65043021    -0.17200
C726        C  0.82754770  0.02369104  0.67247361     0.11200
S727        S  0.89275538  0.08761957  0.60859738    -0.32200
S728        S  0.80209990  0.99429336  0.69425825    -0.32200
H729        H  0.83111924  0.97053420  0.69850652     0.29200
H730        H  0.86980896  0.08009259  0.58575152     0.29200
H731        H  0.91302965  0.05351833  0.65854206     0.19800
H732        H  0.77969360  0.03684507  0.64839358     0.19800
C733        C  0.66721397  0.22416953  0.67600877    -0.06000
C734        C  0.70358532  0.23488073  0.67279477    -0.17200
C735        C  0.72580775  0.21985507  0.65214366     0.11200
C736        C  0.71131335  0.19373723  0.63404807    -0.06000
C737        C  0.67440177  0.18473412  0.63636915    -0.17200
C738        C  0.65217956  0.20009030  0.65653832     0.11200
S739        S  0.77276669  0.23334552  0.65133889    -0.32200
S740        S  0.60456843  0.18853295  0.65566026    -0.32200
H741        H  0.59223338  0.22215717  0.66395932     0.29200
H742        H  0.78663209  0.19896786  0.64792136     0.29200
H743        H  0.71540404  0.25354981  0.68743063     0.19800
H744        H  0.66253835  0.16561026  0.62211314     0.19800
C745        C  0.61792135  0.12155781  0.47810125    -0.06000
C746        C  0.62541536  0.09154498  0.49417167    -0.17200
C747        C  0.65610513  0.08999489  0.51180790     0.11200
C748        C  0.68001460  0.11930895  0.51378327    -0.06000
C749        C  0.67306930  0.14859702  0.49667832    -0.17200
C750        C  0.64288812  0.14989598  0.47882439     0.11200
S751        S  0.66206129  0.05047047  0.53191439    -0.32200
S752        S  0.63834098  0.18843815  0.45716372    -0.32200
H753        H  0.62626156  0.16970757  0.43344918     0.29200
H754        H  0.69743693  0.04428979  0.52192038     0.29200
H755        H  0.60673058  0.06946363  0.49355798     0.19800
H756        H  0.69130429  0.17102450  0.49717364     0.19800
C757        C  0.92584699  0.14056433  0.48269062    -0.06000
C758        C  0.90712171  0.10876956  0.48635067    -0.17200
C759        C  0.87640807  0.10664261  0.50317527     0.11200
C760        C  0.86298274  0.13737244  0.51679715    -0.06000
C761        C  0.88143078  0.16945692  0.51270726    -0.17200
C762        C  0.91268142  0.17132567  0.49607718     0.11200
S763        S  0.85662239  0.06339415  0.50642409    -0.32200
S764        S  0.93531720  0.21329799  0.49386895    -0.32200
H765        H  0.97057803  0.19905033  0.49657210     0.29200
H766        H  0.85990958  0.06330029  0.53560979     0.29200
H767        H  0.91666429  0.08498459  0.47604036     0.19800
H768        H  0.87186481  0.19325693  0.52291797     0.19800
C769        C  0.82042188  0.43597993  0.86403998    -0.06000
C770        C  0.84577206  0.46243980  0.87052077    -0.17200
C771        C  0.86606000  0.47871651  0.84958219     0.11200
C772        C  0.86055323  0.46865810  0.82135886    -0.06000
C773        C  0.83359851  0.44352038  0.81504586    -0.17200
C774        C  0.81332351  0.42751673  0.83588156     0.11200
S775        S  0.89997696  0.51017164  0.86061032    -0.32200
S776        S  0.77850336  0.39661584  0.82515244    -0.32200
H777        H  0.75537216  0.40306849  0.84782834     0.29200
H778        H  0.92806135  0.49422582  0.84522210     0.29200
H779        H  0.85146865  0.46889153  0.89213692     0.19800
H780        H  0.82821286  0.43608430  0.79357796     0.19800
C781        C  0.71724470  0.30261361  0.86966539    -0.06000
C782        C  0.73502366  0.28362623  0.84852950    -0.17200
C783        C  0.71547674  0.26936771  0.82585219     0.11200
C784        C  0.67739469  0.27478199  0.82391047    -0.06000
C785        C  0.65962262  0.29219962  0.84583085    -0.17200
C786        C  0.67890856  0.30563516  0.86867027     0.11200
S787        S  0.74061252  0.24442031  0.80035302    -0.32200
S788        S  0.65280069  0.32633828  0.89594790    -0.32200
H789        H  0.67595454  0.31537641  0.91773868     0.29200
H790        H  0.71333130  0.21881613  0.79636148     0.29200
H791        H  0.76434997  0.28083499  0.84920979     0.19800
H792        H  0.63042083  0.29615136  0.84496821     0.19800
C793        C  0.87962906  0.35718130  0.97665273    -0.06000
C794        C  0.88886157  0.32641607  0.99126113    -0.17200
C795        C  0.91983416  0.32508977  0.00864597     0.11200
C796        C  0.94214539  0.35541406  0.01188180    -0.06000
C797        C  0.93344373  0.38555130  0.99619651    -0.17200
C798        C  0.90298277  0.38668849  0.97864739     0.11200
S799        S  0.92870632  0.28408323  0.02617551    -0.32200
S800        S  0.89600652  0.42667450  0.95905484    -0.32200
H801        H  0.88269565  0.40965969  0.93494027     0.29200
H802        H  0.96562462  0.28317260  0.01859661     0.29200
H803        H  0.87140469  0.30351877  0.98962920     0.19800
H804        H  0.95026776  0.40890137  0.99776021     0.19800
C805        C  0.69038560  0.37688295  0.98851147    -0.06000
C806        C  0.66578267  0.40536299  0.98631260    -0.17200
C807        C  0.63374473  0.40679865  0.00206032     0.11200
C808        C  0.62630329  0.37980897  0.02129899    -0.06000
C809        C  0.65146083  0.35213146  0.02430481    -0.17200
C810        C  0.68320767  0.35019941  0.00831900     0.11200
S811        S  0.60221948  0.44215019  0.99491058    -0.32200
S812        S  0.71376845  0.31328168  0.01391668    -0.32200
H813        H  0.69457371  0.29715982  0.03559811     0.29200
H814        H  0.57094248  0.42087943  0.99623214     0.29200
H815        H  0.67057125  0.42590752  0.97125183     0.19800
H816        H  0.64596538  0.33165792  0.03921054     0.19800
C817        C  0.96773341  0.06118767  0.36831197    -0.06000
C818        C  0.98775018  0.05109805  0.34482999    -0.17200
C819        C  0.97060072  0.03594636  0.32148624     0.11200
C820        C  0.93254224  0.03002588  0.32173377    -0.06000
C821        C  0.91296810  0.03857379  0.34584908    -0.17200
C822        C  0.92998070  0.05428056  0.36892437     0.11200
S823        S  0.99865460  0.52571222  0.29189066    -0.32200
S824        S  0.90177020  0.06588562  0.39819341    -0.32200
H825        H  0.92897374  0.06079814  0.41857223     0.29200
H826        H  0.98009100  0.49445160  0.28482255     0.29200
H827        H  0.51663829  0.05666668  0.34415498     0.19800
H828        H  0.88381388  0.03433023  0.34633933     0.19800
C829        C  0.93287667  0.46522922  0.17829938    -0.06000
C830        C  0.97106167  0.46371587  0.18002266    -0.17200
C831        C  0.99179291  0.44940401  0.15825490     0.11200
C832        C  0.97406176  0.43627792  0.13412246    -0.06000
C833        C  0.93603041  0.43874564  0.13210975    -0.17200
C834        C  0.91535044  0.45290304  0.15380025     0.11200
S835        S  0.54039237  0.44615208  0.16356935    -0.32200
S836        S  0.86656072  0.45167150  0.14982184    -0.32200
H837        H  0.86094869  0.43908933  0.17685986     0.29200
H838        H  0.54414790  0.41239621  0.15158619     0.29200
H839        H  0.98478871  0.47302659  0.19870419     0.19800
H840        H  0.92215915  0.42827507  0.11385330     0.19800
C841        C  0.75277565  0.34237996  0.25653901    -0.06000
C842        C  0.75110948  0.36409808  0.23294906    -0.17200
C843        C  0.77247301  0.39442964  0.23072455     0.11200
C844        C  0.79609760  0.40430037  0.25285945    -0.06000
C845        C  0.79755344  0.38284759  0.27661557    -0.17200
C846        C  0.77657585  0.35207069  0.27863174     0.11200
S847        S  0.76931079  0.41809245  0.19841512    -0.32200
S848        S  0.78271874  0.32592989  0.30948146    -0.32200
H849        H  0.78661102  0.29396770  0.29472295     0.29200
H850        H  0.80717258  0.42088701  0.19574631     0.29200
H851        H  0.73325015  0.35716907  0.21570528     0.19800
H852        H  0.81552582  0.38989847  0.29375025     0.19800
C853        C  0.80325641  0.09492811  0.24712443    -0.06000
C854        C  0.78654009  0.10635528  0.22240323    -0.17200
C855        C  0.76387118  0.13621031  0.22206863     0.11200
C856        C  0.75723290  0.15500311  0.24714718    -0.06000
C857        C  0.77496537  0.14402202  0.27161855    -0.17200
C858        C  0.79817160  0.11473921  0.27179868     0.11200
S859        S  0.74522372  0.14925164  0.18887292    -0.32200
S860        S  0.82162582  0.10494403  0.30399571    -0.32200
H861        H  0.85432602  0.09421329  0.29138692     0.29200
H862        H  0.75169677  0.18547721  0.19313904     0.29200
H863        H  0.79082032  0.09169150  0.20326231     0.19800
H864        H  0.77080791  0.15842146  0.29089071     0.19800
C865        C  0.56191109  0.19730946  0.36165095    -0.06000
C866        C  0.58645992  0.22467862  0.36765941    -0.17200
C867        C  0.60995123  0.23749514  0.34713939     0.11200
C868        C  0.60837122  0.22311214  0.31982389    -0.06000
C869        C  0.58180817  0.19761318  0.31361330    -0.17200
C870        C  0.55844590  0.18498463  0.33396702     0.11200
S871        S  0.64336069  0.26960028  0.35790513    -0.32200
S872        S  0.52511594  0.15252198  0.32335543    -0.32200
H873        H  0.49912660  0.16228845  0.34335095     0.29200
H874        H  0.67276223  0.25106648  0.34613095     0.29200
H875        H  0.58948901  0.23406700  0.38890295     0.19800
H876        H  0.57940449  0.18699725  0.29267777     0.19800
C877        C  0.58291884  0.30274991  0.13368535    -0.06000
C878        C  0.56307595  0.28705023  0.15510384    -0.17200
C879        C  0.58090248  0.27171596  0.17798908     0.11200
C880        C  0.61940403  0.27250401  0.17969904    -0.06000
C881        C  0.63903398  0.28633405  0.15733464    -0.17200
C882        C  0.62130086  0.30116587  0.13441221     0.11200
S883        S  0.55301805  0.25162941  0.20413609    -0.32200
S884        S  0.64924271  0.31812043  0.10685626    -0.32200
H885        H  0.62425705  0.31021645  0.08538172     0.29200
H886        H  0.57709016  0.22333117  0.20897894     0.29200
H887        H  0.53362076  0.28788957  0.15452850     0.19800
H888        H  0.66850975  0.28671268  0.15806163     0.19800
O889        O  0.70582142  0.69034496  0.23240335    -0.57700
C890        C  0.64034089  0.76201480  0.20480286     0.74900
O891        O  0.65084638  0.76162381  0.29641818    -0.58900
C892        C  0.73239097  0.68593757  0.24888245     0.74900
C893        C  0.72983075  0.81004884  0.25643261     0.77300
Cd894      Cd  0.68473964  0.74701552  0.25308722     1.37500
O895        O  0.67297438  0.75155259  0.20306449    -0.57700
O896        O  0.71769113  0.79728004  0.23387202    -0.56500
C897        C  0.63422968  0.73242660  0.29739021     0.77200
O898        O  0.72078005  0.79382030  0.27824817    -0.58900
O899        O  0.62758582  0.76472603  0.22912104    -0.57400
O900        O  0.73639926  0.70933432  0.26753948    -0.57300
O901        O  0.64073461  0.71088103  0.27781287    -0.56500
O902        O  0.88369818  0.49847175  0.29940230    -0.57700
C903        C  0.81967499  0.93620693  0.25195587     0.74900
O904        O  0.84542864  0.55328698  0.22733313    -0.58900
C905        C  0.91168653  0.51760383  0.29701183     0.74900
C906        C  0.91197757  0.97795832  0.20261019     0.77300
Cd907      Cd  0.86703553  0.49767453  0.24945672     1.37500
O908        O  0.84922081  0.93804379  0.26561634    -0.57700
O909        O  0.92038154  0.96910123  0.22719643    -0.56500
C910        C  0.82440544  0.56172629  0.24704627     0.77200
O911        O  0.88408396  0.99733853  0.19991158    -0.58900
O912        O  0.81157254  0.96309904  0.23775126    -0.57400
O913        O  0.91970986  0.52673956  0.27253501    -0.57300
O914        O  0.82231773  0.54012705  0.26688533    -0.56500
O915        O  0.79234101  0.92667678  0.90863658    -0.57700
C916        C  0.72157755  0.87476469  0.96871303     0.74900
O917        O  0.76795503  0.81101687  0.90168239    -0.58900
C918        C  0.80602281  0.91388599  0.88657487     0.74900
C919        C  0.84487375  0.85875423  0.96086814     0.77300
Cd920      Cd  0.77906503  0.86718452  0.92833086     1.37500
O921        O  0.73003944  0.90022351  0.95296520    -0.57700
O922        O  0.82586499  0.88661133  0.96085590    -0.56500
C923        C  0.73902666  0.82286950  0.89031227     0.77200
O924        O  0.83260356  0.83296285  0.94662562    -0.58900
O925        O  0.74046264  0.84700527  0.96594499    -0.57400
O926        O  0.80725407  0.88066237  0.88456985    -0.57300
O927        O  0.72955989  0.85389944  0.89694309    -0.56500
O928        O  0.53617604  0.81385626  0.09927231    -0.57700
C929        C  0.97308107  0.85847250  0.03221851     0.74900
O930        O  0.52164631  0.92664571  0.10027365    -0.58900
C931        C  0.56379964  0.82458959  0.11292879     0.74900
C932        C  0.59266731  0.87833818  0.03816023     0.77300
Cd933      Cd  0.52978697  0.87032870  0.07325300     1.37500
O934        O  0.98116798  0.83486564  0.04984244    -0.57700
O935        O  0.57786266  0.84891062  0.04307310    -0.56500
C936        C  0.99333962  0.91579375  0.11249462     0.77200
O937        O  0.57774772  0.90540426  0.04899635    -0.58900
O938        O  0.99219361  0.88624003  0.03336227    -0.57400
O939        O  0.57450992  0.85563501  0.10824831    -0.57300
O940        O  0.98197706  0.88548912  0.10572060    -0.56500
O941        O  0.56891634  0.59691483  0.45039184    -0.57700
C942        C  0.98554532  0.58344435  0.38964450     0.74900
O943        O  0.96832514  0.66520568  0.44965244    -0.58900
C944        C  0.58353148  0.62369157  0.46184036     0.74900
C945        C  0.54615743  0.67701756  0.38462906     0.77300
Cd946      Cd  0.51926362  0.63198687  0.42759298     1.37500
O947        O  0.51667028  0.57649661  0.39983110    -0.57700
O948        O  0.54760868  0.64376511  0.38395570    -0.56500
C949        C  0.95864939  0.63956079  0.46476702     0.77200
O950        O  0.53179370  0.69104241  0.40598110    -0.58900
O951        O  0.97043678  0.61165764  0.39779189    -0.57400
O952        O  0.56717694  0.65278753  0.45859571    -0.57300
O953        O  0.97784857  0.61182035  0.46319277    -0.56500
O954        O  0.75904531  0.68696533  0.59944216    -0.57700
C955        C  0.83070745  0.63662997  0.53544839     0.74900
O956        O  0.77997733  0.57243377  0.59739113    -0.58900
C957        C  0.73306742  0.67382160  0.61330408     0.74900
C958        C  0.71117519  0.62194234  0.53396307     0.77300
Cd959      Cd  0.77041378  0.63028472  0.57335076     1.37500
O960        O  0.82181631  0.66263126  0.55088563    -0.57700
O961        O  0.72810112  0.65078427  0.53743890    -0.56500
C962        C  0.80661993  0.58387529  0.61185101     0.77200
O963        O  0.72215089  0.59633449  0.54876087    -0.58900
O964        O  0.81066573  0.60969045  0.53710914    -0.57400
O965        O  0.72543693  0.64186896  0.60829513    -0.57300
O966        O  0.81506276  0.61592840  0.60870339    -0.56500
O967        O  0.62423280  0.71486761  0.71245365    -0.57700
C968        C  0.56482819  0.81697319  0.74952113     0.74900
O969        O  0.59276268  0.69414972  0.76911846    -0.58900
C970        C  0.64696567  0.73519564  0.70122273     0.74900
C971        C  0.65513138  0.76496971  0.79921697     0.77300
Cd972      Cd  0.60794954  0.75321220  0.75161393     1.37500
O973        O  0.58744996  0.80959194  0.73063271    -0.57700
O974        O  0.66799996  0.76284850  0.77494078    -0.56500
C975        C  0.56146523  0.69268402  0.75782712     0.77200
O976        O  0.62129439  0.76006303  0.80120149    -0.58900
O977        O  0.56123850  0.79436715  0.76843063    -0.57400
O978        O  0.65211288  0.76461383  0.71328191    -0.57300
O979        O  0.55192592  0.71908947  0.74344215    -0.56500
O980        O  0.89995721  0.01087657  0.79883373    -0.57700
C981        C  0.97210088  0.56649731  0.75921209     0.74900
O982        O  0.95230408  0.94993153  0.72851021    -0.58900
C983        C  0.88269567  0.98201442  0.79792603     0.74900
C984        C  0.88561656  0.51908367  0.70183421     0.77300
Cd985      Cd  0.92740230  0.00369508  0.75176270     1.37500
O986        O  0.98503186  0.53571856  0.75732103    -0.57700
O987        O  0.87074193  0.51734196  0.72543413    -0.56500
C988        C  0.97502725  0.94287334  0.74768338     0.77200
O989        O  0.91948121  0.51289364  0.70129897    -0.58900
O990        O  0.93766739  0.56845311  0.75869220    -0.57400
O991        O  0.88521195  0.96459252  0.77549704    -0.57300
O992        O  0.97565823  0.96406798  0.76812028    -0.56500
C993        C  0.53796538  0.66116156  0.76058376    -0.06000
C994        C  0.55473398  0.62797539  0.76228729    -0.17200
C995        C  0.53433386  0.59670734  0.76261787     0.11200
C996        C  0.49570281  0.59848806  0.76105240    -0.06000
C997        C  0.47901534  0.63195238  0.76023829    -0.17200
C998        C  0.49953074  0.66307455  0.76034022     0.11200
S999        S  0.05868606  0.55519778  0.76442550    -0.32200
S1000       S  0.47495766  0.70431855  0.76107258    -0.32200
H1001       H  0.49960835  0.72134862  0.77924439     0.29200
H1002       H  0.09350734  0.56912351  0.76986825     0.29200
H1003       H  0.58419762  0.62651771  0.76248745     0.19800
H1004       H  0.44956310  0.63404112  0.75949672     0.19800
C1005       C  0.54336756  0.84996713  0.74934351    -0.06000
C1006       C  0.53038600  0.86270462  0.72378653    -0.17200
C1007       C  0.50882447  0.89318394  0.72233248     0.11200
C1008       C  0.49907201  0.91119965  0.74709478    -0.06000
C1009       C  0.51251608  0.89850686  0.77265573    -0.17200
C1010       C  0.53490385  0.86863952  0.77402577     0.11200
S1011       S  0.99621841  0.90833118  0.68821799    -0.32200
S1012       S  0.55296038  0.85684474  0.80778044    -0.32200
H1013       H  0.58729161  0.84613949  0.79800239     0.28400
H1014       H  0.00500377  0.94377597  0.69396820     0.29200
H1015       H  0.53711685  0.84880680  0.70474436     0.19800
H1016       H  0.50577335  0.91209255  0.79183219     0.19800
C1017       C  0.86525825  0.52986749  0.67645179    -0.06000
C1018       C  0.88397293  0.54920026  0.65631535    -0.17200
C1019       C  0.86565544  0.56452917  0.63382574     0.11200
C1020       C  0.82738862  0.56168087  0.63162833    -0.06000
C1021       C  0.80887124  0.54016549  0.65048971    -0.17200
C1022       C  0.82752793  0.52371166  0.67254979     0.11200
S1023       S  0.89276131  0.58733552  0.60849647    -0.32200
S1024       S  0.80202876  0.49449659  0.69445277    -0.32200
H1025       H  0.83096419  0.47063938  0.69869456     0.29200
H1026       H  0.86976007  0.57979706  0.58568469     0.29200
H1027       H  0.91306545  0.55326015  0.65844983     0.19800
H1028       H  0.77966516  0.53691236  0.64849659     0.19800
C1029       C  0.66723008  0.72420125  0.67600615    -0.06000
C1030       C  0.70363760  0.73483215  0.67286102    -0.17200
C1031       C  0.72587095  0.71982058  0.65221133     0.11200
C1032       C  0.71134077  0.69383165  0.63401722    -0.06000
C1033       C  0.67439240  0.68492686  0.63626027    -0.17200
C1034       C  0.65217396  0.70022316  0.65646398     0.11200
S1035       S  0.77289088  0.73312881  0.65155039    -0.32200
S1036       S  0.60456276  0.68865937  0.65557249    -0.32200
H1037       H  0.59221029  0.72221963  0.66401304     0.29200
H1038       H  0.78662376  0.69870811  0.64808780     0.29200
H1039       H  0.71547882  0.75340848  0.68756194     0.19800
H1040       H  0.66251043  0.66588929  0.62194022     0.19800
C1041       C  0.61796094  0.62163261  0.47811917    -0.06000
C1042       C  0.62543972  0.59164800  0.49422375    -0.17200
C1043       C  0.65611239  0.59012669  0.51187737     0.11200
C1044       C  0.68003621  0.61943141  0.51382471    -0.06000
C1045       C  0.67309617  0.64870373  0.49669877    -0.17200
C1046       C  0.64291771  0.64997898  0.47883478     0.11200
S1047       S  0.66200989  0.55065695  0.53205901    -0.32200
S1048       S  0.63834752  0.68850588  0.45715850    -0.32200
H1049       H  0.62623210  0.66976804  0.43345802     0.29200
H1050       H  0.69733477  0.54434647  0.52201028     0.29200
H1051       H  0.60675158  0.56957216  0.49362799     0.19800
H1052       H  0.69133085  0.67112833  0.49718397     0.19800
C1053       C  0.92589986  0.64049296  0.48266964    -0.06000
C1054       C  0.90713714  0.60871104  0.48629461    -0.17200
C1055       C  0.87640169  0.60659571  0.50310043     0.11200
C1056       C  0.86300096  0.63732236  0.51674131    -0.06000
C1057       C  0.88148332  0.66939492  0.51267914    -0.17200
C1058       C  0.91275247  0.67125162  0.49606831     0.11200
S1059       S  0.85656055  0.56336502  0.50630256    -0.32200
S1060       S  0.93543277  0.71320664  0.49389921    -0.32200
H1061       H  0.97068479  0.69892633  0.49655905     0.29200
H1062       H  0.85978652  0.56323870  0.53549125     0.29200
H1063       H  0.91666479  0.58493289  0.47597135     0.19800
H1064       H  0.87193292  0.69319179  0.52289893     0.19800
C1065       C  0.82056510  0.93584473  0.86407034    -0.06000
C1066       C  0.84586976  0.96235206  0.87052814    -0.17200
C1067       C  0.86614233  0.97861747  0.84957562     0.11200
C1068       C  0.86065140  0.96851081  0.82135904    -0.06000
C1069       C  0.83376094  0.94329678  0.81507342    -0.17200
C1070       C  0.81350112  0.92730727  0.83592238     0.11200
S1071       S  0.90003591  0.01010849  0.86058032    -0.32200
S1072       S  0.77871690  0.89634924  0.82522747    -0.32200
H1073       H  0.75555377  0.90285909  0.84787503     0.29200
H1074       H  0.92814428  0.99410101  0.84525517     0.29200
H1075       H  0.85154433  0.96885253  0.89213972     0.19800
H1076       H  0.82839501  0.93580215  0.79361300     0.19800
C1077       C  0.71728156  0.80262308  0.86967432    -0.06000
C1078       C  0.73502660  0.78359385  0.84854797    -0.17200
C1079       C  0.71545074  0.76931829  0.82589413     0.11200
C1080       C  0.67736938  0.77475402  0.82396549    -0.06000
C1081       C  0.65962858  0.79221042  0.84588386    -0.17200
C1082       C  0.67894742  0.80567701  0.86869722     0.11200
S1083       S  0.74055312  0.74433069  0.80040097    -0.32200
S1084       S  0.65289100  0.82647947  0.89595947    -0.32200
H1085       H  0.67604329  0.81553835  0.91775807     0.29200
H1086       H  0.71327790  0.71870294  0.79648409     0.29200
H1087       H  0.76435378  0.78078244  0.84921637     0.19800
H1088       H  0.63042750  0.79618204  0.84503392     0.19800
C1089       C  0.87963491  0.85713100  0.97672306    -0.06000
C1090       C  0.88890011  0.82639060  0.99135121    -0.17200
C1091       C  0.91989467  0.82510318  0.00871582     0.11200
C1092       C  0.94219293  0.85544416  0.01191562    -0.06000
C1093       C  0.93344296  0.88556494  0.99622660    -0.17200
C1094       C  0.90296650  0.88665773  0.97868987     0.11200
S1095       S  0.92882366  0.78411758  0.02625975    -0.32200
S1096       S  0.89594171  0.92660969  0.95906387    -0.32200
H1097       H  0.88277321  0.90952289  0.93493391     0.29200
H1098       H  0.96572595  0.78322008  0.01863494     0.29200
H1099       H  0.87145788  0.80347695  0.98974376     0.19800
H1100       H  0.95024668  0.90892871  0.99777045     0.19800
C1101       C  0.69042189  0.87689106  0.98848710    -0.06000
C1102       C  0.66576884  0.90532189  0.98621833    -0.17200
C1103       C  0.63373109  0.90676770  0.00196760     0.11200
C1104       C  0.62634801  0.87984927  0.02128023    -0.06000
C1105       C  0.65154665  0.85221697  0.02434517    -0.17200
C1106       C  0.68327988  0.85026006  0.00834424     0.11200
S1107       S  0.60213233  0.94202847  0.99472711    -0.32200
S1108       S  0.71388776  0.81339242  0.01400242    -0.32200
H1109       H  0.69422995  0.79679569  0.03521086     0.29200
H1110       H  0.57088532  0.92073464  0.99618424     0.29200
H1111       H  0.67051634  0.92580864  0.97110121     0.19800
H1112       H  0.64609908  0.83181225  0.03931052     0.19800
C1113       C  0.96778465  0.56111163  0.36832041    -0.06000
C1114       C  0.98777159  0.55109662  0.34480423    -0.17200
C1115       C  0.97060373  0.53596562  0.32146115     0.11200
C1116       C  0.93255485  0.52998916  0.32173992    -0.06000
C1117       C  0.91301317  0.53846083  0.34588790    -0.17200
C1118       C  0.93004325  0.55414652  0.36896460     0.11200
S1119       S  0.99868544  0.02559155  0.29195541    -0.32200
S1120       S  0.90186584  0.56563841  0.39827962    -0.32200
H1121       H  0.92910254  0.56048098  0.41862162     0.29200
H1122       H  0.98002736  0.99439592  0.28485431     0.29200
H1123       H  0.51662700  0.55668712  0.34411372     0.19800
H1124       H  0.88386773  0.53417091  0.34640706     0.19800
C1125       C  0.93293590  0.96525171  0.17829808    -0.06000
C1126       C  0.97111628  0.96366909  0.18005404    -0.17200
C1127       C  0.99185578  0.94938489  0.15827934     0.11200
C1128       C  0.97414188  0.93637213  0.13410179    -0.06000
C1129       C  0.93611773  0.93891371  0.13205661    -0.17200
C1130       C  0.91542797  0.95302416  0.15376152     0.11200
S1131       S  0.54039915  0.94644706  0.16342920    -0.32200
S1132       S  0.86664098  0.95180000  0.14977544    -0.32200
H1133       H  0.86107622  0.93895862  0.17674418     0.29200
H1134       H  0.54422987  0.91266461  0.15150677     0.29200
H1135       H  0.98483055  0.97289588  0.19876544     0.19800
H1136       H  0.92225683  0.92851313  0.11377137     0.19800
C1137       C  0.75281022  0.84240827  0.25649820    -0.06000
C1138       C  0.75117811  0.86410871  0.23289599    -0.17200
C1139       C  0.77252308  0.89445519  0.23068945     0.11200
C1140       C  0.79608088  0.90435610  0.25285512    -0.06000
C1141       C  0.79749280  0.88293015  0.27662597    -0.17200
C1142       C  0.77654576  0.85213313  0.27862102     0.11200
S1143       S  0.76943202  0.91809777  0.19836555    -0.32200
S1144       S  0.78266306  0.82600032  0.30947796    -0.32200
H1145       H  0.78659719  0.79403825  0.29472538     0.29200
H1146       H  0.80729276  0.92106188  0.19580162     0.29200
H1147       H  0.73336522  0.85715407  0.21563210     0.19800
H1148       H  0.81541498  0.89001137  0.29378089     0.19800
C1149       C  0.80323588  0.59494289  0.24711747    -0.06000
C1150       C  0.78655301  0.60636675  0.22238118    -0.17200
C1151       C  0.76388048  0.63621969  0.22202467     0.11200
C1152       C  0.75720812  0.65501524  0.24709665    -0.06000
C1153       C  0.77489900  0.64403175  0.27158356    -0.17200
C1154       C  0.79810667  0.61475315  0.27178658     0.11200
S1155       S  0.74526438  0.64924528  0.18881513    -0.32200
S1156       S  0.82150562  0.60497060  0.30400812    -0.32200
H1157       H  0.85422764  0.59423905  0.29143378     0.29200
H1158       H  0.75174233  0.68547108  0.19307317     0.29200
H1159       H  0.79086112  0.59170025  0.20324485     0.19800
H1160       H  0.77070966  0.65842911  0.29085269     0.19800
C1161       C  0.56190285  0.69732772  0.36159572    -0.06000
C1162       C  0.58646542  0.72467871  0.36762275    -0.17200
C1163       C  0.60994274  0.73753029  0.34710628     0.11200
C1164       C  0.60835702  0.72318084  0.31977923    -0.06000
C1165       C  0.58177080  0.69770763  0.31355087    -0.17200
C1166       C  0.55840935  0.68505855  0.33390016     0.11200
S1167       S  0.64331755  0.76966070  0.35788715    -0.32200
S1168       S  0.52503271  0.65265338  0.32326830    -0.32200
H1169       H  0.49908122  0.66239953  0.34329856     0.29200
H1170       H  0.67274342  0.75114458  0.34613288     0.29200
H1171       H  0.58950661  0.73403350  0.38887346     0.19800
H1172       H  0.57934868  0.68712798  0.29260642     0.19800
C1173       C  0.58300508  0.80276494  0.13364214    -0.06000
C1174       C  0.56315738  0.78700777  0.15503233    -0.17200
C1175       C  0.58097732  0.77170996  0.17793504     0.11200
C1176       C  0.61947257  0.77257988  0.17968115    -0.06000
C1177       C  0.63911333  0.78646966  0.15734720    -0.17200
C1178       C  0.62138932  0.80127247  0.13441169     0.11200
S1179       S  0.55309197  0.75159034  0.20406684    -0.32200
S1180       S  0.64934777  0.81831302  0.10689922    -0.32200
H1181       H  0.62440232  0.81041939  0.08539608     0.29200
H1182       H  0.57722225  0.72335570  0.20896967     0.29200
H1183       H  0.53370291  0.78778666  0.15442706     0.19800
H1184       H  0.66858585  0.78691704  0.15810932     0.19800
loop_ 
_geom_bond_atom_site_label_1 
_geom_bond_atom_site_label_2 
_geom_bond_distance 
_geom_bond_site_symmetry_2 
_ccdc_geom_bond_type 
O1            C4   1.263       .  A
O1           Cd6   2.485       .  S
C2           O11   1.266       .  A
C2            O7   1.265       .  A
C2          C288   1.482       .  S
O3            C9   1.266       .  A
O3           Cd6   2.494       .  S
C4           O12   1.265       .  A
C4          C264   1.485       .  S
C5           O10   1.266       .  A
C5            O8   1.263       .  A
C5          C249   1.491       .  S
Cd6          O13   2.442       .  S
Cd6          O12   2.470       .  S
Cd6          O11   2.480       .  S
Cd6           O7   2.447       .  S
Cd6          O10   2.514       .  S
Cd6           O8   2.450       .  S
C9           O13   1.265       .  A
C9          C276   1.486       .  S
O14          C17   1.266   1_565  A
O14         Cd19   2.471       .  S
C15          O24   1.264       .  A
C15          O20   1.265       .  A
C15         C252   1.489       .  S
O16          C22   1.266       .  A
O16         Cd19   2.491   1_545  S
C17          O25   1.266       .  A
C17         C228   1.483       .  S
C18          O23   1.265       .  A
C18          O21   1.266       .  A
C18         C237   1.481       .  S
Cd19         O26   2.445   1_565  S
Cd19         O25   2.480   1_565  S
Cd19        O320   2.484       .  S
Cd19        O316   2.486       .  S
Cd19        O319   2.466       .  S
Cd19        O317   2.482       .  S
O20        Cd315   2.486       .  S
O21        Cd315   2.481       .  S
C22          O26   1.263       .  A
C22         C261   1.478       .  S
O23        Cd315   2.466       .  S
O24        Cd315   2.484       .  S
O27          C30   1.270       .  A
O27         Cd32   2.502       .  S
C28          O37   1.265       .  A
C28          O33   1.271       .  A
C28         C213   1.495       .  S
O29          C35   1.273       .  A
O29         Cd32   2.510       .  S
C30          O38   1.263       .  A
C30         C177   1.474       .  S
C31          O36   1.271       .  A
C31          O34   1.264       .  A
C31         C201   1.483       .  S
Cd32         O39   2.405       .  S
Cd32         O38   2.411       .  S
Cd32         O37   2.435       .  S
Cd32         O33   2.493       .  S
Cd32         O36   2.508       .  S
Cd32         O34   2.427       .  S
C35          O39   1.265       .  A
C35         C189   1.480       .  S
O40          C43   1.270       .  A
O40         Cd45   2.494       .  S
C41          O50   1.267       .  A
C41          O46   1.269       .  A
C41         C204   1.494       .  S
O42         C640   1.270   1_455  A
O42         Cd45   2.509       .  S
C43          O51   1.264       .  A
C43         C285   1.473       .  S
C44          O49   1.272       .  A
C44          O47   1.266       .  A
C44         C216   1.486       .  S
Cd45         O51   2.408       .  S
Cd45         O49   2.508       .  S
Cd45         O47   2.429       .  S
Cd45        O644   2.426   1_455  S
Cd45        O642   2.429   1_455  S
Cd45        O638   2.494   1_455  S
O46        Cd637   2.493       .  S
C48          O52   1.263       .  A
C48         O634   1.270       .  A
C48         C240   1.477       .  S
O50        Cd637   2.430       .  S
O52        Cd637   2.426       .  S
O53          C56   1.269       .  A
O53         Cd58   2.503       .  S
C54          O63   1.265       .  A
C54         O651   1.271       .  A
C54         C225   1.474       .  S
O55          C61   1.270       .  A
O55        Cd650   2.495       .  S
C56          O64   1.264       .  A
C56         C153   1.483       .  S
C57          O62   1.270       .  A
C57          O60   1.261       .  A
C57         C273   1.475       .  S
Cd58         O64   2.427       .  S
Cd58         O59   2.484       .  S
Cd58         O62   2.518       .  S
Cd58         O60   2.392       .  S
Cd58        O647   2.495   1_455  S
Cd58        O657   2.424   1_455  S
Cd58        O655   2.411   1_455  S
O59         C646   1.271   1_455  A
C61          O65   1.266       .  A
C61         C165   1.485       .  S
O63        Cd650   2.411       .  S
O65        Cd650   2.424       .  S
O66          C69   1.273       .  A
O66         Cd71   2.515       .  S
C67          O76   1.263       .  A
C67          O72   1.273       .  A
C67         C168   1.495       .  S
O68          C74   1.271       .  A
O68         Cd71   2.507       .  S
C69          O77   1.265       .  A
C69         C144   1.484       .  S
C70          O75   1.270       .  A
C70          O73   1.268       .  A
C70         C156   1.495       .  S
Cd71         O78   2.414       .  S
Cd71         O77   2.404       .  S
Cd71         O76   2.416       .  S
Cd71         O72   2.510       .  S
Cd71         O75   2.480       .  S
Cd71         O73   2.442       .  S
C74          O78   1.265       .  A
C74         C132   1.479       .  S
O79          C82   1.264       .  A
O79         Cd84   2.447       .  S
C80          O89   1.261       .  A
C80          O85   1.265       .  A
C80         C117   1.477       .  S
O81          C87   1.268       .  A
O81         Cd84   2.463       .  S
C82          O90   1.267       .  A
C82         C141   1.484       .  S
C83          O88   1.262       .  A
C83          O86   1.264       .  A
C83         C192   1.482       .  S
Cd84         O91   2.461       .  S
Cd84         O90   2.505       .  S
Cd84         O89   2.454       .  S
Cd84         O85   2.482       .  S
Cd84         O88   2.440       .  S
Cd84         O86   2.493       .  S
C87          O91   1.267       .  A
C87         C105   1.483       .  S
O92          C95   1.266       .  A
O92         Cd97   2.498       .  S
C93         O102   1.267       .  A
C93          O98   1.261       .  A
C93         C700   1.494       .  S
O94         C100   1.267       .  A
O94         Cd97   2.493       .  S
C95         O103   1.264       .  A
C95         C180   1.487       .  S
C96         O101   1.266       .  A
C96          O99   1.265       .  A
C96         C129   1.484       .  S
Cd97        O104   2.448       .  S
Cd97        O103   2.442       .  S
Cd97        O398   2.501       .  S
Cd97        O394   2.452       .  S
Cd97        O397   2.468       .  S
Cd97        O395   2.483       .  S
O98        Cd393   2.452       .  S
O99        Cd393   2.483       .  S
C100        O104   1.265       .  A
C100        C712   1.487       .  S
O101       Cd393   2.468       .  S
O102       Cd393   2.501       .  S
C105        C106   1.402       .  A
C105        C110   1.413   1_455  A
C106        C107   1.404       .  A
C106        H115   1.083       .  S
C107        C108   1.421   1_455  A
C107        S703   1.810       .  S
C108        C685   1.494       .  S
C108        C109   1.408       .  A
C109        C110   1.401       .  A
C109        H116   1.084       .  S
C110        S112   1.803       .  S
S111        C699   1.810       .  S
S111        H114   1.407       .  S
S112        H113   1.407       .  S
C117        C118   1.402       .  A
C117        C122   1.413       .  A
C118        C119   1.401       .  A
C118        H127   1.083       .  S
C119        C120   1.416   1_455  A
C119        S715   1.800   1_455  S
C120        C692   1.487       .  S
C120        C121   1.407   1_655  A
C121        C122   1.399       .  A
C121        H128   1.083       .  S
C122        S124   1.806       .  S
S123        C711   1.800       .  S
S123        H126   1.407       .  S
S124        H125   1.407       .  S
C129        C130   1.403       .  A
C129        C134   1.416       .  A
C130        C131   1.397       .  A
C130        H139   1.084       .  S
C131        C132   1.413       .  A
C131        S135   1.805       .  S
C132        C133   1.404       .  A
C133        C134   1.406       .  A
C133        H140   1.083       .  S
C134        S136   1.802   1_545  S
S135        H138   1.406       .  S
S136        H137   1.408       .  S
C141        C142   1.407       .  A
C141        C146   1.413       .  A
C142        C143   1.407       .  A
C142        H151   1.083       .  S
C143        C144   1.415       .  A
C143        S147   1.801       .  S
C144        C145   1.404       .  A
C145        C146   1.396       .  A
C145        H152   1.084       .  S
C146        S148   1.804       .  S
S147        H150   1.407       .  S
S148        H149   1.407       .  S
C153        C154   1.404       .  A
C153        C158   1.414       .  A
C154        C155   1.406       .  A
C154        H163   1.084       .  S
C155        C156   1.420       .  A
C155        S159   1.799       .  S
C156        C157   1.407       .  A
C157        C158   1.397       .  A
C157        H164   1.083       .  S
C158        S160   1.806       .  S
S159        H162   1.407       .  S
S160        H161   1.408       .  S
C165        C166   1.402       .  A
C165        C170   1.414       .  A
C166        C167   1.396       .  A
C166        H175   1.084       .  S
C167        C168   1.421       .  A
C167        S171   1.803       .  S
C168        C169   1.409       .  A
C169        C170   1.406       .  A
C169        H176   1.083       .  S
C170        S172   1.801       .  S
S171        H174   1.407       .  S
S172        H173   1.407       .  S
C177        C178   1.402       .  A
C177        C182   1.411       .  A
C178        C179   1.404       .  A
C178        H187   1.084       .  S
C179        C180   1.419       .  A
C179        S183   1.800       .  S
C180        C181   1.406       .  A
C181        C182   1.395       .  A
C181        H188   1.084       .  S
C182        S184   1.806       .  S
S183        H186   1.407       .  S
S184        H185   1.407       .  S
C189        C190   1.405       .  A
C189        C194   1.413       .  A
C190        C191   1.406       .  A
C190        H199   1.082       .  S
C191        C192   1.415       .  A
C191        S195   1.802       .  S
C192        C193   1.404       .  A
C193        C194   1.395       .  A
C193        H200   1.083       .  S
C194        S196   1.805       .  S
S195        H198   1.408       .  S
S196        H197   1.407       .  S
C201        C202   1.404       .  A
C201        C206   1.413       .  A
C202        C203   1.407   1_556  A
C202        H211   1.082       .  S
C203        C204   1.420       .  A
C203        S207   1.800       .  S
C204        C205   1.407   1_554  A
C205        C206   1.396       .  A
C205        H212   1.082       .  S
C206        S208   1.806       .  S
S207        H210   1.407       .  S
S208        H209   1.407       .  S
C213        C214   1.410       .  A
C213        C218   1.420   1_556  A
C214        C215   1.405   1_556  A
C214        H223   1.082       .  S
C215        C216   1.412       .  A
C215        S219   1.801   1_554  S
C216        C217   1.403       .  A
C217        C218   1.403       .  A
C217        H224   1.080       .  S
C218        S220   1.811       .  S
S219        H222   1.407       .  S
S220        H221   1.407       .  S
C225        C226   1.402       .  A
C225        C230   1.412       .  A
C226        C227   1.402       .  A
C226        H827   1.085       .  S
C227        C228   1.416       .  A
C227        S527   1.802       .  S
C228        C229   1.404       .  A
C229        C230   1.398       .  A
C229        H236   1.084       .  S
C230        S232   1.805       .  S
S231        C523   1.802       .  S
S231        H234   1.407       .  S
S232        H233   1.407       .  S
H235        C818   1.085   1_455  S
C237        C238   1.405       .  A
C237        C242   1.414       .  A
C238        C239   1.404       .  A
C238        H247   1.083       .  S
C239        C240   1.413       .  A
C239        S835   1.803       .  S
C240        C241   1.402       .  A
C241        C242   1.398       .  A
C241        H248   1.084       .  S
C242        S244   1.801       .  S
S243        C831   1.803   1_455  S
S243        H246   1.406       .  S
S244        H245   1.404       .  S
C249        C250   1.406       .  A
C249        C254   1.417       .  A
C250        C251   1.399       .  A
C250        H259   1.084       .  S
C251        C252   1.416       .  A
C251        S255   1.801       .  S
C252        C253   1.406       .  A
C253        C254   1.404       .  A
C253        H260   1.083       .  S
C254        S256   1.801       .  S
S255        H258   1.402       .  S
S256        H257   1.407       .  S
C261        C262   1.403       .  A
C261        C266   1.413       .  A
C262        C263   1.403       .  A
C262        H271   1.084       .  S
C263        C264   1.418       .  A
C263        S267   1.802       .  S
C264        C265   1.404       .  A
C265        C266   1.397       .  A
C265        H272   1.084       .  S
C266        S268   1.805       .  S
S267        H270   1.407       .  S
S268        H269   1.408       .  S
C273        C274   1.403       .  A
C273        C278   1.412       .  A
C274        C275   1.405       .  A
C274        H283   1.084       .  S
C275        C276   1.419       .  A
C275        S279   1.801       .  S
C276        C277   1.404       .  A
C277        C278   1.394       .  A
C277        H284   1.084       .  S
C278        S280   1.806       .  S
S279        H282   1.407       .  S
S280        H281   1.407   1_455  S
C285        C286   1.403       .  A
C285        C290   1.411       .  A
C286        C287   1.404       .  A
C286        H295   1.082       .  S
C287        C288   1.416       .  A
C287        S291   1.801       .  S
C288        C289   1.404       .  A
C289        C290   1.396       .  A
C289        H296   1.083       .  S
C290        S292   1.805       .  S
S291        H294   1.407       .  S
S292        H293   1.406       .  S
O297        C300   1.263       .  A
O297       Cd302   2.485       .  S
C298        O307   1.266       .  A
C298        O303   1.265       .  A
C298        C584   1.481       .  S
O299        C305   1.266       .  A
O299       Cd302   2.493       .  S
C300        O308   1.265       .  A
C300        C560   1.485       .  S
C301        O306   1.266       .  A
C301        O304   1.263       .  A
C301        C545   1.490       .  S
Cd302       O309   2.442       .  S
Cd302       O308   2.470       .  S
Cd302       O307   2.480       .  S
Cd302       O303   2.446       .  S
Cd302       O306   2.513       .  S
Cd302       O304   2.450       .  S
C305        O309   1.265       .  A
C305        C572   1.486       .  S
O310        C313   1.266       .  A
O310       Cd315   2.472       .  S
C311        O320   1.264       .  A
C311        O316   1.265       .  A
C311        C548   1.489       .  S
O312        C318   1.266       .  A
O312       Cd315   2.491       .  S
C313        O321   1.266       .  A
C313        C524   1.483       .  S
C314        O319   1.265       .  A
C314        O317   1.266       .  A
C314        C533   1.482       .  S
Cd315       O322   2.445       .  S
Cd315       O321   2.479       .  S
C318        O322   1.263       .  A
C318        C557   1.478       .  S
O323        C326   1.270       .  A
O323       Cd328   2.502       .  S
C324        O333   1.265       .  A
C324        O329   1.271       .  A
C324        C509   1.495       .  S
O325        C331   1.273       .  A
O325       Cd328   2.509       .  S
C326        O334   1.263       .  A
C326        C473   1.473       .  S
C327        O332   1.271       .  A
C327        O330   1.264       .  A
C327        C497   1.483       .  S
Cd328       O335   2.405       .  S
Cd328       O334   2.410       .  S
Cd328       O333   2.435       .  S
Cd328       O329   2.493       .  S
Cd328       O332   2.509       .  S
Cd328       O330   2.427       .  S
C331        O335   1.265       .  A
C331        C485   1.480       .  S
O336        C339   1.270       .  A
O336       Cd341   2.495       .  S
C337        O346   1.267       .  A
C337        O342   1.269       .  A
C337        C500   1.494       .  S
O338        C936   1.270   1_455  A
O338       Cd341   2.509       .  S
C339        O347   1.264       .  A
C339        C581   1.473       .  S
C340        O345   1.272       .  A
C340        O343   1.266       .  A
C340        C512   1.486       .  S
Cd341       O940   2.427   1_455  S
Cd341       O347   2.408       .  S
Cd341       O938   2.431   1_455  S
Cd341       O934   2.493   1_455  S
Cd341       O345   2.508       .  S
Cd341       O343   2.429       .  S
O342       Cd933   2.494       .  S
C344        O930   1.270       .  A
C344        O348   1.263       .  A
C344        C536   1.477       .  S
O346       Cd933   2.430       .  S
O348       Cd933   2.426       .  S
O349        C352   1.269       .  A
O349       Cd354   2.503       .  S
C350        O359   1.265       .  A
C350        O947   1.271       .  A
C350        C521   1.474       .  S
O351        C357   1.270       .  A
O351       Cd946   2.495       .  S
C352        O360   1.264       .  A
C352        C449   1.483       .  S
C353        O358   1.270       .  A
C353        O356   1.261       .  A
C353        C569   1.475       .  S
Cd354       O943   2.494   1_455  S
Cd354       O953   2.425   1_455  S
Cd354       O360   2.426       .  S
Cd354       O951   2.411   1_455  S
Cd354       O355   2.484       .  S
Cd354       O358   2.518       .  S
Cd354       O356   2.393       .  S
O355        C942   1.271   1_455  A
C357        O361   1.266       .  A
C357        C461   1.485       .  S
O359       Cd946   2.411       .  S
O361       Cd946   2.424       .  S
O362        C365   1.273       .  A
O362       Cd367   2.515       .  S
C363        O372   1.263       .  A
C363        O368   1.273       .  A
C363        C464   1.495       .  S
O364        C370   1.271       .  A
O364       Cd367   2.507       .  S
C365        O373   1.265       .  A
C365        C440   1.484       .  S
C366        O371   1.270       .  A
C366        O369   1.268       .  A
C366        C452   1.495       .  S
Cd367       O374   2.415       .  S
Cd367       O373   2.403       .  S
Cd367       O372   2.418       .  S
Cd367       O368   2.509       .  S
Cd367       O371   2.479       .  S
Cd367       O369   2.442       .  S
C370        O374   1.265       .  A
C370        C428   1.479       .  S
O375        C378   1.264       .  A
O375       Cd380   2.448       .  S
C376        O385   1.261       .  A
C376        O381   1.265       .  A
C376        C413   1.476       .  S
O377        C383   1.268       .  A
O377       Cd380   2.464       .  S
C378        O386   1.267       .  A
C378        C437   1.484       .  S
C379        O384   1.262       .  A
C379        O382   1.264       .  A
C379        C488   1.482       .  S
Cd380       O387   2.460       .  S
Cd380       O386   2.505       .  S
Cd380       O385   2.455       .  S
Cd380       O381   2.481       .  S
Cd380       O384   2.441       .  S
Cd380       O382   2.493       .  S
C383        O387   1.267       .  A
C383        C401   1.483       .  S
O388        C391   1.266   1_545  A
O388       Cd393   2.497       .  S
C389        O398   1.267       .  A
C389        O394   1.261       .  A
C389        C996   1.494       .  S
O390        C396   1.267       .  A
O390       Cd393   2.492   1_565  S
C391        O399   1.264       .  A
C391        C476   1.487       .  S
C392        O397   1.266       .  A
C392        O395   1.265       .  A
C392        C425   1.484       .  S
Cd393       O400   2.448   1_545  S
Cd393       O399   2.442   1_545  S
C396        O400   1.265       .  A
C396       C1008   1.487       .  S
C401        C402   1.401       .  A
C401        C406   1.413   1_455  A
C402        C403   1.404       .  A
C402        H411   1.084       .  S
C403        C404   1.422   1_455  A
C403        S999   1.810       .  S
C404        C981   1.494       .  S
C404        C405   1.408       .  A
C405        C406   1.401       .  A
C405        H412   1.085       .  S
C406        S408   1.803       .  S
S407        C995   1.810       .  S
S407        H410   1.407       .  S
S408        H409   1.407       .  S
C413        C414   1.402       .  A
C413        C418   1.414       .  A
C414        C415   1.401       .  A
C414        H423   1.083       .  S
C415        C416   1.416   1_455  A
C415       S1011   1.800   1_455  S
C416        C988   1.487       .  S
C416        C417   1.407   1_655  A
C417        C418   1.399       .  A
C417        H424   1.083       .  S
C418        S420   1.806       .  S
S419       C1007   1.800       .  S
S419        H422   1.407       .  S
S420        H421   1.407       .  S
C425        C426   1.403       .  A
C425        C430   1.417       .  A
C426        C427   1.397       .  A
C426        H435   1.084       .  S
C427        C428   1.413       .  A
C427        S431   1.805       .  S
C428        C429   1.404       .  A
C429        C430   1.406       .  A
C429        H436   1.083       .  S
C430        S432   1.802       .  S
S431        H434   1.407       .  S
S432        H433   1.408       .  S
C437        C438   1.407       .  A
C437        C442   1.413       .  A
C438        C439   1.407       .  A
C438        H447   1.083       .  S
C439        C440   1.415       .  A
C439        S443   1.801       .  S
C440        C441   1.404       .  A
C441        C442   1.396       .  A
C441        H448   1.084       .  S
C442        S444   1.804       .  S
S443        H446   1.407       .  S
S444        H445   1.407       .  S
C449        C450   1.404       .  A
C449        C454   1.414       .  A
C450        C451   1.406       .  A
C450        H459   1.083       .  S
C451        C452   1.420       .  A
C451        S455   1.799       .  S
C452        C453   1.407       .  A
C453        C454   1.397       .  A
C453        H460   1.083       .  S
C454        S456   1.806       .  S
S455        H458   1.408       .  S
S456        H457   1.408       .  S
C461        C462   1.402       .  A
C461        C466   1.414       .  A
C462        C463   1.396       .  A
C462        H471   1.084       .  S
C463        C464   1.421       .  A
C463        S467   1.803       .  S
C464        C465   1.409       .  A
C465        C466   1.406       .  A
C465        H472   1.083       .  S
C466        S468   1.801       .  S
S467        H470   1.407       .  S
S468        H469   1.407       .  S
C473        C474   1.402       .  A
C473        C478   1.411       .  A
C474        C475   1.404       .  A
C474        H483   1.084       .  S
C475        C476   1.419       .  A
C475        S479   1.800   1_565  S
C476        C477   1.406       .  A
C477        C478   1.396       .  A
C477        H484   1.084       .  S
C478        S480   1.806       .  S
S479        H482   1.407   1_545  S
S480        H481   1.407       .  S
C485        C486   1.405       .  A
C485        C490   1.413       .  A
C486        C487   1.406       .  A
C486        H495   1.082       .  S
C487        C488   1.415       .  A
C487        S491   1.802       .  S
C488        C489   1.404       .  A
C489        C490   1.395       .  A
C489        H496   1.083       .  S
C490        S492   1.805       .  S
S491        H494   1.408       .  S
S492        H493   1.407       .  S
C497        C498   1.404       .  A
C497        C502   1.413       .  A
C498        C499   1.407   1_556  A
C498        H507   1.082       .  S
C499        C500   1.420       .  A
C499        S503   1.800       .  S
C500        C501   1.407   1_554  A
C501        C502   1.396       .  A
C501        H508   1.082       .  S
C502        S504   1.806       .  S
S503        H506   1.407       .  S
S504        H505   1.407       .  S
C509        C510   1.410       .  A
C509        C514   1.420   1_556  A
C510        C511   1.405   1_556  A
C510        H519   1.082       .  S
C511        C512   1.412       .  A
C511        S515   1.801   1_554  S
C512        C513   1.403       .  A
C513        C514   1.403       .  A
C513        H520   1.080       .  S
C514        S516   1.811       .  S
S515        H518   1.407       .  S
S516        H517   1.407       .  S
C521        C522   1.402       .  A
C521        C526   1.412       .  A
C522        C523   1.402       .  A
C522       H1123   1.085       .  S
C523        C524   1.416       .  A
C524        C525   1.405       .  A
C525        C526   1.399       .  A
C525        H532   1.084       .  S
C526        S528   1.805       .  S
S527        H530   1.407   1_545  S
S528        H529   1.407       .  S
H531       C1114   1.085   1_455  S
C533        C534   1.405       .  A
C533        C538   1.414       .  A
C534        C535   1.404       .  A
C534        H543   1.083       .  S
C535        C536   1.413       .  A
C535       S1131   1.803       .  S
C536        C537   1.402       .  A
C537        C538   1.398       .  A
C537        H544   1.084       .  S
C538        S540   1.801       .  S
S539       C1127   1.803   1_455  S
S539        H542   1.406       .  S
S540        H541   1.404       .  S
C545        C546   1.406       .  A
C545        C550   1.417       .  A
C546        C547   1.398       .  A
C546        H555   1.084       .  S
C547        C548   1.416       .  A
C547        S551   1.801       .  S
C548        C549   1.406       .  A
C549        C550   1.404       .  A
C549        H556   1.083       .  S
C550        S552   1.801       .  S
S551        H554   1.402       .  S
S552        H553   1.407       .  S
C557        C558   1.403       .  A
C557        C562   1.413       .  A
C558        C559   1.403       .  A
C558        H567   1.084       .  S
C559        C560   1.418       .  A
C559        S563   1.802       .  S
C560        C561   1.404       .  A
C561        C562   1.397       .  A
C561        H568   1.084       .  S
C562        S564   1.805       .  S
S563        H566   1.407       .  S
S564        H565   1.408       .  S
C569        C570   1.403       .  A
C569        C574   1.412       .  A
C570        C571   1.405       .  A
C570        H579   1.084       .  S
C571        C572   1.419       .  A
C571        S575   1.801       .  S
C572        C573   1.404       .  A
C573        C574   1.394       .  A
C573        H580   1.084       .  S
C574        S576   1.806       .  S
S575        H578   1.407       .  S
S576        H577   1.407   1_455  S
C581        C582   1.403       .  A
C581        C586   1.411       .  A
C582        C583   1.404       .  A
C582        H591   1.082       .  S
C583        C584   1.416       .  A
C583        S587   1.801       .  S
C584        C585   1.404       .  A
C585        C586   1.395       .  A
C585        H592   1.083       .  S
C586        S588   1.805       .  S
S587        H590   1.407       .  S
S588        H589   1.406       .  S
O593        C596   1.263       .  A
O593       Cd598   2.485       .  S
C594        O603   1.266       .  A
C594        O599   1.265       .  A
C594        C880   1.482       .  S
O595        C601   1.266       .  A
O595       Cd598   2.493       .  S
C596        O604   1.265       .  A
C596        C856   1.485       .  S
C597        O602   1.266       .  A
C597        O600   1.263       .  A
C597        C841   1.490       .  S
Cd598       O605   2.442       .  S
Cd598       O604   2.470       .  S
Cd598       O603   2.479       .  S
Cd598       O599   2.447       .  S
Cd598       O602   2.514       .  S
Cd598       O600   2.449       .  S
C601        O605   1.265       .  A
C601        C868   1.485       .  S
O606        C609   1.266   1_565  A
O606       Cd611   2.472       .  S
C607        O616   1.264       .  A
C607        O612   1.265       .  A
C607        C844   1.489       .  S
O608        C614   1.266       .  A
O608       Cd611   2.491   1_545  S
C609        O617   1.266       .  A
C609        C820   1.483       .  S
C610        O615   1.265       .  A
C610        O613   1.266       .  A
C610        C829   1.481       .  S
Cd611       O618   2.445   1_565  S
Cd611       O617   2.479   1_565  S
Cd611       O912   2.484       .  S
Cd611       O908   2.486       .  S
Cd611       O911   2.466       .  S
Cd611       O909   2.482       .  S
O612       Cd907   2.486       .  S
O613       Cd907   2.482       .  S
C614        O618   1.263       .  A
C614        C853   1.478       .  S
O615       Cd907   2.466       .  S
O616       Cd907   2.484       .  S
O619        C622   1.270       .  A
O619       Cd624   2.502       .  S
C620        O629   1.265       .  A
C620        O625   1.271       .  A
C620        C805   1.495       .  S
O621        C627   1.273       .  A
O621       Cd624   2.510       .  S
C622        O630   1.263       .  A
C622        C769   1.474       .  S
C623        O628   1.271       .  A
C623        O626   1.264       .  A
C623        C793   1.483       .  S
Cd624       O631   2.405       .  S
Cd624       O630   2.410       .  S
Cd624       O629   2.435       .  S
Cd624       O625   2.493       .  S
Cd624       O628   2.508       .  S
Cd624       O626   2.427       .  S
C627        O631   1.265       .  A
C627        C781   1.480       .  S
O632        C635   1.270       .  A
O632       Cd637   2.495       .  S
C633        O642   1.267       .  A
C633        O638   1.269       .  A
C633        C796   1.494       .  S
O634       Cd637   2.509       .  S
C635        O643   1.264       .  A
C635        C877   1.473       .  S
C636        O641   1.272       .  A
C636        O639   1.266       .  A
C636        C808   1.486       .  S
Cd637       O643   2.408       .  S
Cd637       O641   2.508       .  S
Cd637       O639   2.429       .  S
C640        O644   1.263       .  A
C640        C832   1.477       .  S
O645        C648   1.269       .  A
O645       Cd650   2.503       .  S
C646        O655   1.265       .  A
C646        C817   1.474       .  S
O647        C653   1.270       .  A
C648        O656   1.264       .  A
C648        C745   1.483       .  S
C649        O654   1.270       .  A
C649        O652   1.261       .  A
C649        C865   1.475       .  S
Cd650       O656   2.426       .  S
Cd650       O651   2.484       .  S
Cd650       O654   2.518       .  S
Cd650       O652   2.393       .  S
C653        O657   1.266       .  A
C653        C757   1.485       .  S
O658        C661   1.273       .  A
O658       Cd663   2.515       .  S
C659        O668   1.263       .  A
C659        O664   1.273       .  A
C659        C760   1.495       .  S
O660        C666   1.271       .  A
O660       Cd663   2.506       .  S
C661        O669   1.265       .  A
C661        C736   1.484       .  S
C662        O667   1.270       .  A
C662        O665   1.268       .  A
C662        C748   1.495       .  S
Cd663       O670   2.414       .  S
Cd663       O669   2.403       .  S
Cd663       O668   2.417       .  S
Cd663       O664   2.509       .  S
Cd663       O667   2.481       .  S
Cd663       O665   2.441       .  S
C666        O670   1.265       .  A
C666        C724   1.479       .  S
O671        C674   1.264       .  A
O671       Cd676   2.446       .  S
C672        O681   1.261       .  A
C672        O677   1.265       .  A
C672        C709   1.476       .  S
O673        C679   1.268       .  A
O673       Cd676   2.464       .  S
C674        O682   1.267       .  A
C674        C733   1.484       .  S
C675        O680   1.262       .  A
C675        O678   1.264       .  A
C675        C784   1.483       .  S
Cd676       O683   2.461       .  S
Cd676       O682   2.505       .  S
Cd676       O681   2.453       .  S
Cd676       O677   2.481       .  S
Cd676       O680   2.440       .  S
Cd676       O678   2.493       .  S
C679        O683   1.267       .  A
C679        C697   1.483       .  S
O684        C687   1.266       .  A
O684       Cd689   2.498       .  S
C685        O694   1.267       .  A
C685        O690   1.261       .  A
O686        C692   1.267       .  A
O686       Cd689   2.494       .  S
C687        O695   1.264       .  A
C687        C772   1.487       .  S
C688        O693   1.266       .  A
C688        O691   1.265       .  A
C688        C721   1.484       .  S
Cd689       O696   2.449       .  S
Cd689       O695   2.442       .  S
Cd689       O990   2.502       .  S
Cd689       O986   2.452       .  S
Cd689       O989   2.468       .  S
Cd689       O987   2.483       .  S
O690       Cd985   2.453       .  S
O691       Cd985   2.483       .  S
C692        O696   1.265       .  A
O693       Cd985   2.468       .  S
O694       Cd985   2.500       .  S
C697        C698   1.401       .  A
C697        C702   1.413       .  A
C698        C699   1.404       .  A
C698        H707   1.083       .  S
C699        C700   1.422       .  A
C700        C701   1.408       .  A
C701        C702   1.401       .  A
C701        H708   1.085       .  S
C702        S704   1.803       .  S
S703        H706   1.407       .  S
S704        H705   1.407       .  S
C709        C710   1.402       .  A
C709        C714   1.413       .  A
C710        C711   1.401       .  A
C710        H719   1.083       .  S
C711        C712   1.416       .  A
C712        C713   1.407       .  A
C713        C714   1.399       .  A
C713        H720   1.083       .  S
C714        S716   1.806       .  S
S715        H718   1.407   1_655  S
S716        H717   1.407       .  S
C721        C722   1.403       .  A
C721        C726   1.417       .  A
C722        C723   1.397       .  A
C722        H731   1.084       .  S
C723        C724   1.413       .  A
C723        S727   1.805       .  S
C724        C725   1.404       .  A
C725        C726   1.406       .  A
C725        H732   1.084       .  S
C726        S728   1.802   1_545  S
S727        H730   1.407       .  S
S728        H729   1.408       .  S
C733        C734   1.407       .  A
C733        C738   1.413       .  A
C734        C735   1.407       .  A
C734        H743   1.083       .  S
C735        C736   1.415       .  A
C735        S739   1.801       .  S
C736        C737   1.404       .  A
C737        C738   1.396       .  A
C737        H744   1.084       .  S
C738        S740   1.804       .  S
S739        H742   1.407       .  S
S740        H741   1.408       .  S
C745        C746   1.404       .  A
C745        C750   1.414       .  A
C746        C747   1.406       .  A
C746        H755   1.084       .  S
C747        C748   1.420       .  A
C747        S751   1.799       .  S
C748        C749   1.407       .  A
C749        C750   1.397       .  A
C749        H756   1.083       .  S
C750        S752   1.806       .  S
S751        H754   1.408       .  S
S752        H753   1.408       .  S
C757        C758   1.402       .  A
C757        C762   1.414       .  A
C758        C759   1.396       .  A
C758        H767   1.084       .  S
C759        C760   1.421       .  A
C759        S763   1.803       .  S
C760        C761   1.409       .  A
C761        C762   1.406       .  A
C761        H768   1.083       .  S
C762        S764   1.801       .  S
S763        H766   1.407       .  S
S764        H765   1.407       .  S
C769        C770   1.402       .  A
C769        C774   1.411       .  A
C770        C771   1.404       .  A
C770        H779   1.084       .  S
C771        C772   1.419       .  A
C771        S775   1.800       .  S
C772        C773   1.406       .  A
C773        C774   1.396       .  A
C773        H780   1.084       .  S
C774        S776   1.806       .  S
S775        H778   1.407       .  S
S776        H777   1.407       .  S
C781        C782   1.405       .  A
C781        C786   1.413       .  A
C782        C783   1.406       .  A
C782        H791   1.082       .  S
C783        C784   1.416       .  A
C783        S787   1.802       .  S
C784        C785   1.404       .  A
C785        C786   1.395       .  A
C785        H792   1.083       .  S
C786        S788   1.805       .  S
S787        H790   1.408       .  S
S788        H789   1.407       .  S
C793        C794   1.404       .  A
C793        C798   1.413       .  A
C794        C795   1.407   1_556  A
C794        H803   1.082       .  S
C795        C796   1.420       .  A
C795        S799   1.800       .  S
C796        C797   1.407   1_554  A
C797        C798   1.396       .  A
C797        H804   1.082       .  S
C798        S800   1.806       .  S
S799        H802   1.407       .  S
S800        H801   1.407       .  S
C805        C806   1.410       .  A
C805        C810   1.420   1_556  A
C806        C807   1.405   1_556  A
C806        H815   1.082       .  S
C807        C808   1.412       .  A
C807        S811   1.801   1_554  S
C808        C809   1.403       .  A
C809        C810   1.403       .  A
C809        H816   1.080       .  S
C810        S812   1.811       .  S
S811        H814   1.407       .  S
S812        H813   1.407       .  S
C817        C818   1.402       .  A
C817        C822   1.412       .  A
C818        C819   1.402       .  A
C819        C820   1.416       .  A
C819       S1119   1.802       .  S
C820        C821   1.404       .  A
C821        C822   1.398       .  A
C821        H828   1.084       .  S
C822        S824   1.805       .  S
S823       C1115   1.802       .  S
S823        H826   1.407       .  S
S824        H825   1.407       .  S
C829        C830   1.405       .  A
C829        C834   1.414       .  A
C830        C831   1.404       .  A
C830        H839   1.083       .  S
C831        C832   1.413       .  A
C832        C833   1.402       .  A
C833        C834   1.398       .  A
C833        H840   1.084       .  S
C834        S836   1.801       .  S
S835        H838   1.406       .  S
S836        H837   1.404       .  S
C841        C842   1.406       .  A
C841        C846   1.417       .  A
C842        C843   1.398       .  A
C842        H851   1.084       .  S
C843        C844   1.416       .  A
C843        S847   1.801       .  S
C844        C845   1.406       .  A
C845        C846   1.404       .  A
C845        H852   1.083       .  S
C846        S848   1.801       .  S
S847        H850   1.402       .  S
S848        H849   1.407       .  S
C853        C854   1.403       .  A
C853        C858   1.413       .  A
C854        C855   1.403       .  A
C854        H863   1.084       .  S
C855        C856   1.418       .  A
C855        S859   1.802       .  S
C856        C857   1.404       .  A
C857        C858   1.397       .  A
C857        H864   1.084       .  S
C858        S860   1.805       .  S
S859        H862   1.407       .  S
S860        H861   1.408       .  S
C865        C866   1.403       .  A
C865        C870   1.412       .  A
C866        C867   1.405       .  A
C866        H875   1.084       .  S
C867        C868   1.419       .  A
C867        S871   1.801       .  S
C868        C869   1.404       .  A
C869        C870   1.394       .  A
C869        H876   1.084       .  S
C870        S872   1.806       .  S
S871        H874   1.407       .  S
S872        H873   1.407       .  S
C877        C878   1.403       .  A
C877        C882   1.411       .  A
C878        C879   1.404       .  A
C878        H887   1.082       .  S
C879        C880   1.416       .  A
C879        S883   1.801       .  S
C880        C881   1.404       .  A
C881        C882   1.396       .  A
C881        H888   1.083       .  S
C882        S884   1.805       .  S
S883        H886   1.407       .  S
S884        H885   1.406       .  S
O889        C892   1.263       .  A
O889       Cd894   2.485       .  S
C890        O899   1.266       .  A
C890        O895   1.265       .  A
C890       C1176   1.481       .  S
O891        C897   1.266       .  A
O891       Cd894   2.493       .  S
C892        O900   1.265       .  A
C892       C1152   1.485       .  S
C893        O898   1.266       .  A
C893        O896   1.263       .  A
C893       C1137   1.490       .  S
Cd894       O901   2.442       .  S
Cd894       O900   2.469       .  S
Cd894       O899   2.479       .  S
Cd894       O895   2.446       .  S
Cd894       O898   2.513       .  S
Cd894       O896   2.449       .  S
C897        O901   1.265       .  A
C897       C1164   1.486       .  S
O902        C905   1.266       .  A
O902       Cd907   2.472       .  S
C903        O912   1.264       .  A
C903        O908   1.265       .  A
C903       C1140   1.489       .  S
O904        C910   1.266       .  A
O904       Cd907   2.491       .  S
C905        O913   1.266       .  A
C905       C1116   1.483       .  S
C906        O911   1.265       .  A
C906        O909   1.266       .  A
C906       C1125   1.482       .  S
Cd907       O914   2.445       .  S
Cd907       O913   2.479       .  S
C910        O914   1.263       .  A
C910       C1149   1.478       .  S
O915        C918   1.270       .  A
O915       Cd920   2.501       .  S
C916        O925   1.265       .  A
C916        O921   1.271       .  A
C916       C1101   1.495       .  S
O917        C923   1.273       .  A
O917       Cd920   2.509       .  S
C918        O926   1.263       .  A
C918       C1065   1.473       .  S
C919        O924   1.271       .  A
C919        O922   1.264       .  A
C919       C1089   1.483       .  S
Cd920       O927   2.405       .  S
Cd920       O926   2.410       .  S
Cd920       O925   2.435       .  S
Cd920       O921   2.493       .  S
Cd920       O924   2.509       .  S
Cd920       O922   2.426       .  S
C923        O927   1.265       .  A
C923       C1077   1.480       .  S
O928        C931   1.270       .  A
O928       Cd933   2.495       .  S
C929        O938   1.267       .  A
C929        O934   1.269       .  A
C929       C1092   1.494       .  S
O930       Cd933   2.509       .  S
C931        O939   1.264       .  A
C931       C1173   1.472       .  S
C932        O937   1.272       .  A
C932        O935   1.266       .  A
C932       C1104   1.486       .  S
Cd933       O939   2.408       .  S
Cd933       O937   2.509       .  S
Cd933       O935   2.429       .  S
C936        O940   1.263       .  A
C936       C1128   1.477       .  S
O941        C944   1.269       .  A
O941       Cd946   2.503       .  S
C942        O951   1.265       .  A
C942       C1113   1.474       .  S
O943        C949   1.270       .  A
C944        O952   1.264       .  A
C944       C1041   1.483       .  S
C945        O950   1.270       .  A
C945        O948   1.261       .  A
C945       C1161   1.475       .  S
Cd946       O952   2.426       .  S
Cd946       O947   2.484       .  S
Cd946       O950   2.518       .  S
Cd946       O948   2.394       .  S
C949        O953   1.266       .  A
C949       C1053   1.485       .  S
O954        C957   1.273       .  A
O954       Cd959   2.516       .  S
C955        O964   1.263       .  A
C955        O960   1.273       .  A
C955       C1056   1.495       .  S
O956        C962   1.271       .  A
O956       Cd959   2.507       .  S
C957        O965   1.265       .  A
C957       C1032   1.484       .  S
C958        O963   1.270       .  A
C958        O961   1.268       .  A
C958       C1044   1.495       .  S
Cd959       O966   2.415       .  S
Cd959       O965   2.403       .  S
Cd959       O964   2.418       .  S
Cd959       O960   2.509       .  S
Cd959       O963   2.480       .  S
Cd959       O961   2.442       .  S
C962        O966   1.265       .  A
C962       C1020   1.479       .  S
O967        C970   1.264       .  A
O967       Cd972   2.447       .  S
C968        O977   1.261       .  A
C968        O973   1.265       .  A
C968       C1005   1.476       .  S
O969        C975   1.268       .  A
O969       Cd972   2.463       .  S
C970        O978   1.267       .  A
C970       C1029   1.484       .  S
C971        O976   1.262       .  A
C971        O974   1.264       .  A
C971       C1080   1.483       .  S
Cd972       O979   2.460       .  S
Cd972       O978   2.505       .  S
Cd972       O977   2.454       .  S
Cd972       O973   2.481       .  S
Cd972       O976   2.441       .  S
Cd972       O974   2.492       .  S
C975        O979   1.267       .  A
C975        C993   1.483       .  S
O980        C983   1.266   1_545  A
O980       Cd985   2.497       .  S
C981        O990   1.267       .  A
C981        O986   1.261       .  A
O982        C988   1.267       .  A
O982       Cd985   2.493   1_565  S
C983        O991   1.264       .  A
C983       C1068   1.487       .  S
C984        O989   1.266       .  A
C984        O987   1.265       .  A
C984       C1017   1.484       .  S
Cd985       O992   2.448   1_545  S
Cd985       O991   2.441   1_545  S
C988        O992   1.265       .  A
C993        C994   1.401       .  A
C993        C998   1.413       .  A
C994        C995   1.404       .  A
C994       H1003   1.083       .  S
C995        C996   1.422       .  A
C996        C997   1.408       .  A
C997        C998   1.401       .  A
C997       H1004   1.085       .  S
C998       S1000   1.803       .  S
S999       H1002   1.407       .  S
S1000      H1001   1.407       .  S
C1005      C1006   1.402       .  A
C1005      C1010   1.414       .  A
C1006      C1007   1.400       .  A
C1006      H1015   1.083       .  S
C1007      C1008   1.416       .  A
C1008      C1009   1.407       .  A
C1009      C1010   1.399       .  A
C1009      H1016   1.083       .  S
C1010      S1012   1.806       .  S
S1011      H1014   1.407   1_655  S
S1012      H1013   1.407       .  S
C1017      C1018   1.403       .  A
C1017      C1022   1.417       .  A
C1018      C1019   1.397       .  A
C1018      H1027   1.084       .  S
C1019      C1020   1.413       .  A
C1019      S1023   1.805       .  S
C1020      C1021   1.404       .  A
C1021      C1022   1.406       .  A
C1021      H1028   1.083       .  S
C1022      S1024   1.802       .  S
S1023      H1026   1.407       .  S
S1024      H1025   1.408       .  S
C1029      C1030   1.407       .  A
C1029      C1034   1.413       .  A
C1030      C1031   1.407       .  A
C1030      H1039   1.083       .  S
C1031      C1032   1.415       .  A
C1031      S1035   1.801       .  S
C1032      C1033   1.404       .  A
C1033      C1034   1.396       .  A
C1033      H1040   1.084       .  S
C1034      S1036   1.804       .  S
S1035      H1038   1.407       .  S
S1036      H1037   1.407       .  S
C1041      C1042   1.404       .  A
C1041      C1046   1.414       .  A
C1042      C1043   1.406       .  A
C1042      H1051   1.084       .  S
C1043      C1044   1.420       .  A
C1043      S1047   1.799       .  S
C1044      C1045   1.407       .  A
C1045      C1046   1.397       .  A
C1045      H1052   1.083       .  S
C1046      S1048   1.806       .  S
S1047      H1050   1.408       .  S
S1048      H1049   1.408       .  S
C1053      C1054   1.402       .  A
C1053      C1058   1.414       .  A
C1054      C1055   1.396       .  A
C1054      H1063   1.084       .  S
C1055      C1056   1.421       .  A
C1055      S1059   1.803       .  S
C1056      C1057   1.409       .  A
C1057      C1058   1.406       .  A
C1057      H1064   1.083       .  S
C1058      S1060   1.801       .  S
S1059      H1062   1.407       .  S
S1060      H1061   1.407       .  S
C1065      C1066   1.402       .  A
C1065      C1070   1.411       .  A
C1066      C1067   1.404       .  A
C1066      H1075   1.084       .  S
C1067      C1068   1.419       .  A
C1067      S1071   1.800   1_565  S
C1068      C1069   1.406       .  A
C1069      C1070   1.395       .  A
C1069      H1076   1.084       .  S
C1070      S1072   1.806       .  S
S1071      H1074   1.407   1_545  S
S1072      H1073   1.407       .  S
C1077      C1078   1.405       .  A
C1077      C1082   1.413       .  A
C1078      C1079   1.406       .  A
C1078      H1087   1.082       .  S
C1079      C1080   1.416       .  A
C1079      S1083   1.802       .  S
C1080      C1081   1.404       .  A
C1081      C1082   1.395       .  A
C1081      H1088   1.083       .  S
C1082      S1084   1.805       .  S
S1083      H1086   1.408       .  S
S1084      H1085   1.408       .  S
C1089      C1090   1.404       .  A
C1089      C1094   1.413       .  A
C1090      C1091   1.407   1_556  A
C1090      H1099   1.082       .  S
C1091      C1092   1.420       .  A
C1091      S1095   1.800       .  S
C1092      C1093   1.407   1_554  A
C1093      C1094   1.396       .  A
C1093      H1100   1.082       .  S
C1094      S1096   1.806       .  S
S1095      H1098   1.407       .  S
S1096      H1097   1.407       .  S
C1101      C1102   1.410       .  A
C1101      C1106   1.420   1_556  A
C1102      C1103   1.405   1_556  A
C1102      H1111   1.082       .  S
C1103      C1104   1.412       .  A
C1103      S1107   1.801   1_554  S
C1104      C1105   1.403       .  A
C1105      C1106   1.403       .  A
C1105      H1112   1.080       .  S
C1106      S1108   1.811       .  S
S1107      H1110   1.407       .  S
S1108      H1109   1.407       .  S
C1113      C1114   1.402       .  A
C1113      C1118   1.412       .  A
C1114      C1115   1.402       .  A
C1115      C1116   1.416       .  A
C1116      C1117   1.404       .  A
C1117      C1118   1.398       .  A
C1117      H1124   1.084       .  S
C1118      S1120   1.805       .  S
S1119      H1122   1.407   1_545  S
S1120      H1121   1.407       .  S
C1125      C1126   1.405       .  A
C1125      C1130   1.414       .  A
C1126      C1127   1.404       .  A
C1126      H1135   1.083       .  S
C1127      C1128   1.413       .  A
C1128      C1129   1.402       .  A
C1129      C1130   1.398       .  A
C1129      H1136   1.084       .  S
C1130      S1132   1.801       .  S
S1131      H1134   1.406       .  S
S1132      H1133   1.404       .  S
C1137      C1138   1.406       .  A
C1137      C1142   1.417       .  A
C1138      C1139   1.398       .  A
C1138      H1147   1.084       .  S
C1139      C1140   1.416       .  A
C1139      S1143   1.801       .  S
C1140      C1141   1.406       .  A
C1141      C1142   1.404       .  A
C1141      H1148   1.083       .  S
C1142      S1144   1.801       .  S
S1143      H1146   1.402       .  S
S1144      H1145   1.407       .  S
C1149      C1150   1.403       .  A
C1149      C1154   1.413       .  A
C1150      C1151   1.403       .  A
C1150      H1159   1.084       .  S
C1151      C1152   1.418       .  A
C1151      S1155   1.802       .  S
C1152      C1153   1.404       .  A
C1153      C1154   1.397       .  A
C1153      H1160   1.084       .  S
C1154      S1156   1.805       .  S
S1155      H1158   1.407       .  S
S1156      H1157   1.408       .  S
C1161      C1162   1.403       .  A
C1161      C1166   1.412       .  A
C1162      C1163   1.405       .  A
C1162      H1171   1.084       .  S
C1163      C1164   1.419       .  A
C1163      S1167   1.801       .  S
C1164      C1165   1.404       .  A
C1165      C1166   1.394       .  A
C1165      H1172   1.084       .  S
C1166      S1168   1.806       .  S
S1167      H1170   1.407       .  S
S1168      H1169   1.407       .  S
C1173      C1174   1.403       .  A
C1173      C1178   1.411       .  A
C1174      C1175   1.404       .  A
C1174      H1183   1.082       .  S
C1175      C1176   1.416       .  A
C1175      S1179   1.801       .  S
C1176      C1177   1.404       .  A
C1177      C1178   1.395       .  A
C1177      H1184   1.083       .  S
C1178      S1180   1.805       .  S
S1179      H1182   1.407       .  S
S1180      H1181   1.406       .  S
